<!DOCTYPE HTML PUBLIC "-//W3C//DTD HTML 4.0 Transitional//EN">
<!-- saved from url=(0082)http://www.eirgrid.com/EirgridPortal/uploads/Publications/Summer%20Peak%202009.raw -->
<HTML><HEAD>
<META http-equiv=Content-Type content="text/html; charset=windows-1252">
<META content="MSHTML 6.00.2900.3492" name=GENERATOR></HEAD>
<BODY><PRE>0,   100.00          / PSS/E-30.3    WED, NOV 26 2008  10:55
/ CASE: 2009;  AUTUMN 01/07/2009; FORECAST STATEMENT 2008 -
/ FS08_SEP08 - MEMO  GALLERY_T;  15:22:58  TUESDAY, SEPTEMBE
    10,'F_M_____    ',  38.0000,1,     0.000,     0.000,   1,   3,1.03762, -12.4521,   2
    11,'FMN_LOOP    ',  38.0000,1,     0.000,     0.000,   1,   1,1.02329,  -9.0765,   2
    12,'BEDFORD     ',  38.0000,1,     0.000,     0.000,   1,   1,1.02339, -11.1910,   2
    13,'M_R_____    ',  38.0000,1,     0.000,     0.000,   1,   1,1.03911, -13.7030,   2
    14,'F_I_____    ',  38.0000,1,     0.000,     0.000,   1,   3,1.02972, -11.2172,   2
    15,'I_M_____    ',  38.0000,1,     0.000,     0.000,   1,   1,1.03924, -10.9473,   2
  1021,'ARDNACRU    ', 110.0000,1,     0.000,     0.000,   4,   1,1.04880,  -9.3482,   1
  1041,'AGHADA      ', 110.0000,1,     0.000,     0.000,   3,   1,1.05698, -14.0101,   1
  1042,'AGHADA      ', 220.0000,1,     0.000,     0.000,   3,   1,1.07454,  -4.2403,   1
  1052,'AGHADA2     ', 220.0000,1,     0.000,     0.000,   3,   1,1.07153, -14.0165,   1
  1061,'ARIGNA      ', 110.0000,1,     0.000,     0.000,   9,   1,1.04836,  -6.9950,   2
  1062,'AGHADA3     ', 220.0000,1,     0.000,     0.000,   3,   1,1.07153, -14.0165,   1
  1071,'AGANNYGA    ', 110.0000,1,     0.000,     0.000,   4,   1,1.06790,  -7.0092,   1
  1072,'AGHADA4     ', 220.0000,1,     0.000,     0.000,   3,   1,1.07470,  -4.2051,   1
  1081,'AHANE       ', 110.0000,1,     0.000,     0.000,   7,   1,1.05125,  -9.4005,   2
  1101,'ANNER       ', 110.0000,1,     0.000,     0.000,   5,   3,1.03199, -15.9577,   5
  1121,'ARKLOW      ', 110.0000,1,     0.000,     0.000,   6,   1,1.05648, -10.5291,   1
  1122,'ARKLOW      ', 220.0000,1,     0.000,     0.000,   6,   1,1.06208,  -7.9312,   1
  1131,'ATHEA       ', 110.0000,1,     0.000,     0.000,   7,   5,1.07500,  -4.9446,   4
  1141,'ATHLONE     ', 110.0000,1,     0.000,     0.000,   9,   1,1.06534,  -7.8893,   1
  1161,'AUGHINIS    ', 110.0000,1,     0.000,     0.000,   7,   3,1.07500,  -4.2584,   1
  1181,'ARVA        ', 110.0000,1,     0.000,     0.000,  10,   1,1.03391,  -7.8386,   1
  1201,'ARTANE      ', 110.0000,1,     0.000,     0.000,   1,   1,1.04727,  -5.7132,   2
  1221,'ATHY        ', 110.0000,1,     0.000,     0.000,   8,   1,1.04634,  -9.9073,   1
  1231,'BALLYWAT    ', 110.0000,1,     0.000,     0.000,   6,   1,1.06115, -13.0872,   4
  1251,'BOOLTIAG    ', 110.0000,1,     0.000,     0.000,   4,   1,1.04003,  -8.4716,   2
  1271,'BALTRASN    ', 110.0000,1,     0.000,     0.000,  10,   1,1.04120,  -6.3857,   1
  1281,'BALLYLIC    ', 110.0000,1,     0.000,     0.000,   3,   1,1.04878, -13.3912,   2
  1301,'BALLYBEG    ', 110.0000,1,     0.000,     0.000,   6,   1,1.04784, -10.6153,   1
  1321,'BLAKE       ', 110.0000,1,     0.000,     0.000,   8,   1,1.04007,  -7.8331,   2
  1341,'BINBANE     ', 110.0000,1,     0.000,     0.000,   9,   1,1.03349,  -6.6302,   2
  1351,'BARODA      ', 110.0000,1,     0.000,     0.000,   8,   1,1.04414,  -8.2939,   1
  1361,'BALLYDIN    ', 110.0000,1,     0.000,     0.000,   5,   1,1.03460, -15.3311,   1
  1381,'BARNAHEL    ', 110.0000,1,     0.000,     0.000,   3,   1,1.06112, -14.1450,   1
  1401,'BELLACOR    ', 110.0000,1,     0.000,     0.000,   9,   1,1.05196, -10.5135,   1
  1421,'BLACKROC    ', 110.0000,1,     0.000,     0.000,   1,   2,1.04421,  -9.2572,   2
  1441,'BANDON      ', 110.0000,1,     0.000,     0.000,   3,   1,1.05345, -14.7185,   1
  1461,'BARRYMOR    ', 110.0000,1,     0.000,     0.000,   5,   1,1.04547, -14.2894,   2
  1481,'BUTLERST    ', 110.0000,1,     0.000,     0.000,   5,   1,1.04036, -14.0407,   1
  1501,'BRINNY      ', 110.0000,1,     0.000,     0.000,   3,   1,1.05331, -14.7268,   5
  1511,'BRINNY      ', 110.0000,1,     0.000,     0.000,   3,   1,1.05332, -14.7264,   5
  1581,'CABRA       ', 110.0000,1,     0.000,     0.000,   1,   2,1.04595,  -5.7893,   2
  1601,'CLASHAVO    ', 110.0000,1,     0.000,     0.000,   3,   1,1.07096, -10.6074,   1
  1602,'CLASHAVO    ', 220.0000,1,     0.000,     0.000,   3,   1,1.07022,  -5.7757,   1
  1611,'CLONKEEN    ', 110.0000,1,     0.000,     0.000,   7,   1,1.07320,  -8.8157,   1
  1621,'COOLROE     ', 110.0000,1,     0.000,     0.000,   3,   1,1.06232, -12.9877,   1
  1631,'CORDERRY    ', 110.0000,1,     0.000,     0.000,   9,   1,1.04697,  -7.2342,   1
  1641,'CASHLA      ', 110.0000,1,     0.000,     0.000,   9,   1,1.07531,  -5.0032,   1
  1642,'CASHLA      ', 220.0000,1,     0.000,     0.000,   9,   1,1.06930,  -1.4942,   1
  1651,'CLAHANE     ', 110.0000,1,     0.000,     0.000,   7,   5,1.07500,  -5.8055,   1
  1661,'CASTLEBA    ', 110.0000,1,     0.000,     0.000,   9,   1,1.05624, -10.2944,   1
  1681,'CARRIGAD    ', 110.0000,1,     0.000,     0.000,   3,   1,1.06872, -11.7297,   1
  1691,'CENTRAL     ', 110.0000,1,     0.000,     0.000,   1,   1,1.04528,  -9.1746,   1
  1701,'CATH_FAL    ', 110.0000,1,     0.000,     0.000,   9,   1,1.05000,  -6.9002,   1
  1711,'CROMCAST    ', 110.0000,1,     0.000,     0.000,   1,   1,1.07672,  -4.8968,   1
  1721,'CAHIR       ', 110.0000,1,     0.000,     0.000,   5,   1,1.04003, -15.5552,   1
  1731,'CROMCAST    ', 110.0000,1,     0.000,     0.000,   1,   1,1.07672,  -4.8968,   1
  1741,'CARRICKM    ', 110.0000,1,     0.000,     0.000,   2,   2,1.04540,  -9.1640,   2
  1742,'CARRICKM    ', 220.0000,1,     0.000,     0.000,   2,   2,1.07139,  -5.0031,   1
  1761,'CLIFF       ', 110.0000,1,     0.000,     0.000,   9,   1,1.05111,  -6.8149,   1
  1781,'CASTLEFA    ', 110.0000,1,     0.000,     0.000,   7,   3,1.07464,  -4.2760,   5
  1791,'CASTLEFA    ', 110.0000,1,     0.000,     0.000,   7,   3,1.07463,  -4.2771,   5
  1801,'COOKSTOW    ', 110.0000,1,     0.000,     0.000,   1,   2,1.02150, -10.5969,   2
  1821,'CLOON       ', 110.0000,1,     0.000,     0.000,   9,   1,1.07013,  -6.8329,   1
  1841,'CRANE       ', 110.0000,1,     0.000,     0.000,   6,   1,1.05502, -13.2194,   1
  1851,'CHERRYWO    ', 110.0000,1,     0.000,     0.000,   2,   1,1.04377,  -9.2487,   1
  1861,'CARICKON    ', 110.0000,1,     0.000,     0.000,   9,   1,1.05209,  -6.8089,   1
  1871,'COLLEGE     ', 110.0000,1,     0.000,     0.000,   2,   1,1.05424,  -5.3014,   1
  1881,'CHARLEVI    ', 110.0000,1,     0.000,     0.000,   3,   1,1.03301, -11.6406,   1
  1901,'CARLOW      ', 110.0000,1,     0.000,     0.000,   6,   1,1.05445, -10.7391,   1
  1921,'COW CROS    ', 110.0000,1,     0.000,     0.000,   3,   1,1.05749, -13.9870,   1
  1931,'CUNGHILL    ', 110.0000,1,     0.000,     0.000,   9,   1,1.05070,  -8.7535,   4
  1941,'CUSHALIN    ', 110.0000,1,     0.000,     0.000,   8,   1,1.07500,  -5.8405,   1
  1961,'CASTLEVI    ', 110.0000,1,     0.000,     0.000,   3,   1,1.05518, -13.3426,   1
  1971,'COOMAGEA    ', 110.0000,1,     0.000,     0.000,   7,   1,1.07500,  -8.5678,   4
  1981,'CORRACLA    ', 110.0000,1,     0.000,     0.000,   9,   1,1.04032,  -8.3999,   1
  2001,'CULLENAG    ', 110.0000,1,     0.000,     0.000,   5,   1,1.04707, -13.7578,   1
  2002,'CULLENAG    ', 220.0000,1,     0.000,     0.000,   5,   1,1.06018, -11.3050,   1
  2021,'CITY WES    ', 110.0000,1,     0.000,     0.000,   1,   1,1.06010,  -7.2468,   2
  2031,'CHARLESL    ', 110.0000,1,     0.000,     0.000,   6,   1,1.04121, -10.3277,   1
  2041,'CORDUFF     ', 110.0000,1,     0.000,     0.000,   2,   1,1.05514,  -5.2118,   1
  2042,'CORDUFF     ', 220.0000,1,     0.000,     0.000,   2,   1,1.07444,  -1.8150,   1
  2051,'CORDUFF     ', 110.0000,1,     0.000,     0.000,   2,   1,1.05514,  -5.2118,   1
  2081,'DUNKETTL    ', 110.0000,4,     0.000,     0.000,   3,   1,1.00000,   0.0000,   5
  2101,'DUNDALK     ', 110.0000,1,     0.000,     0.000,  10,   1,1.04870,  -5.7730,   2
  2121,'DRUMLINE    ', 110.0000,1,     0.000,     0.000,   4,   1,1.03479,  -9.5775,   1
  2141,'DUNGARVA    ', 110.0000,1,     0.000,     0.000,   5,   1,1.03660, -14.2170,   1
  2161,'DOON        ', 110.0000,1,     0.000,     0.000,   5,   1,1.03258, -15.9233,   1
  2181,'DRYBRIDG    ', 110.0000,1,     0.000,     0.000,  10,   1,1.03185,  -7.1787,   1
  2202,'DUNSTOWN    ', 220.0000,1,     0.000,     0.000,   2,   1,1.07519,  -3.6887,   1
  2204,'DUNSTOWN    ', 380.0000,1,     0.000,     0.000,   2,   1,1.02361,   0.5112,   1
  2221,'DUNMANWA    ', 110.0000,1,     0.000,     0.000,   3,   1,1.05540, -13.6266,   1
  2231,'DERRYBRI    ', 110.0000,1,     0.000,     0.000,   4,   1,1.07203,  -6.7645,   2
  2241,'DALLOW      ', 110.0000,1,     0.000,     0.000,   5,   1,1.06377,  -6.8728,   2
  2251,'DARDISTO    ', 110.0000,1,     0.000,     0.000,   1,   1,1.07739,  -4.8596,   1
  2261,'DERRYIRO    ', 110.0000,1,     0.000,     0.000,   8,   1,1.04913,  -7.2666,   1
  2281,'DALTON      ', 110.0000,1,     0.000,     0.000,   9,   1,1.05703,  -9.6911,   1
  2301,'DUNFIRTH    ', 110.0000,1,     0.000,     0.000,   8,   1,1.04913,  -6.9514,   2
  2321,'DRUMKEEN    ', 110.0000,1,     0.000,     0.000,   9,   1,1.04959,  -6.0132,   1
  2361,'ENNIS       ', 110.0000,1,     0.000,     0.000,   4,   1,1.04085,  -8.7541,   1
  2481,'FASS EAS    ', 110.0000,1,     0.000,     0.000,   2,   2,1.04037,  -9.4342,   2
  2491,'FASS WES    ', 110.0000,1,     0.000,     0.000,   2,   2,1.04061,  -9.4210,   2
  2521,'FLAGFORD    ', 110.0000,1,     0.000,     0.000,   9,   1,1.05451,  -6.6891,   1
  2522,'FLAGFORD    ', 220.0000,1,     0.000,     0.000,   9,   1,1.05878,  -3.8292,   1
  2541,'FRN ST A    ', 110.0000,1,     0.000,     0.000,   1,   2,1.05486,  -8.2482,   2
  2551,'FRN ST B    ', 110.0000,1,     0.000,     0.000,   1,   2,1.06203,  -7.1231,   2
  2561,'FIN_URBA    ', 110.0000,1,     0.000,     0.000,   2,   2,1.04971,  -5.5432,   1
  2562,'FINGLAS     ', 220.0000,1,     0.000,     0.000,   2,   2,1.07500,  -1.9267,   1
  2571,'FIN_RURA    ', 110.0000,1,     0.000,     0.000,   2,   2,1.07715,  -4.7881,   1
  2581,'FIN_SUBU    ', 110.0000,1,     0.000,     0.000,   2,   1,1.05416,  -5.3225,   1
  2591,'FIN_OPEN    ', 110.0000,1,     0.000,     0.000,   2,   1,1.07500,  -1.9267,   2
  2681,'GILRA       ', 110.0000,1,     0.000,     0.000,   9,   3,1.05568,  -6.9869,   2
  2701,'GLASMORE    ', 110.0000,1,     0.000,     0.000,   1,   2,1.06770,  -5.4660,   2
  2721,'GRIFFINR    ', 110.0000,1,     0.000,     0.000,   2,   2,1.05648,  -7.0226,   2
  2731,'GLANLEE     ', 110.0000,1,     0.000,     0.000,   7,   5,1.07504,  -8.5511,   4
  2741,'GREAT IS    ', 110.0000,1,     0.000,     0.000,   6,   1,1.04849, -13.2133,   1
  2742,'GREAT IS    ', 220.0000,1,     0.000,     0.000,   6,   1,1.06481, -10.1387,   1
  2761,'GRANGE      ', 110.0000,1,     0.000,     0.000,   1,   2,1.07592,  -4.9341,   2
  2771,'GARROW      ', 110.0000,1,     0.000,     0.000,   7,   1,1.07500,  -8.7175,   7
  2781,'GALWAY      ', 110.0000,1,     0.000,     0.000,   9,   1,1.05803,  -5.9880,   1
  2801,'GOLAGH      ', 110.0000,1,     0.000,     0.000,   9,   1,1.04904,  -6.4570,   4
  2821,'GORTAWEE    ', 110.0000,1,     0.000,     0.000,   9,   1,1.03771,  -8.6639,   1
  2841,'GORMAN      ', 110.0000,1,     0.000,     0.000,  10,   1,1.04012,  -7.0947,   1
  2842,'GORMAN      ', 220.0000,1,     0.000,     0.000,  10,   1,1.05421,  -4.1584,   1
  2852,'GLANAGOW    ', 220.0000,1,     0.000,     0.000,   3,   1,1.07162, -14.0171,   1
  2861,'GRANGE C    ', 110.0000,1,     0.000,     0.000,   1,   1,1.04817,  -7.5936,   2
  2881,'GLENLARA    ', 110.0000,1,     0.000,     0.000,   3,   1,1.02263, -11.4918,   2
  2941,'HAROLDS     ', 110.0000,1,     0.000,     0.000,   1,   2,1.05497,  -8.2468,   2
  2962,'HUNTSTOW    ', 220.0000,1,     0.000,     0.000,   2,   1,1.07527,  -1.8243,   4
  2972,'HUNTSTOW    ', 220.0000,1,     0.000,     0.000,   2,   1,1.07491,  -1.4751,   4
  3061,'INISCARR    ', 110.0000,1,     0.000,     0.000,   3,   1,1.06452, -12.8224,   1
  3081,'INCH_CIT    ', 110.0000,1,     0.000,     0.000,   1,   2,1.06383,  -7.0101,   2
  3082,'INCHICOR    ', 220.0000,1,     0.000,     0.000,   2,   2,1.07361,  -5.0042,   1
  3091,'INCH_COU    ', 110.0000,1,     0.000,     0.000,   1,   1,1.05469,  -7.1582,   2
  3101,'IKERRIN     ', 110.0000,1,     0.000,     0.000,   5,   1,1.01699, -12.7852,   2
  3122,'IRISHTOW    ', 220.0000,1,     0.000,     0.000,   2,   1,1.07500,  -4.5002,   1
  3201,'KNOCKRAH    ', 110.0000,1,     0.000,     0.000,   3,   1,1.05892, -12.7698,   1
  3202,'KNOCKRAH    ', 220.0000,1,     0.000,     0.000,   3,   1,1.06858,  -5.5471,   1
  3212,'KNOCKRAH    ', 220.0000,1,     0.000,     0.000,   3,   1,1.06155, -12.9156,   1
  3221,'KILBARRY    ', 110.0000,1,     0.000,     0.000,   3,   1,1.05627, -13.5418,   1
  3241,'KILTEEL     ', 110.0000,1,     0.000,     0.000,   8,   1,1.05093,  -8.4151,   2
  3261,'KILKENNY    ', 110.0000,1,     0.000,     0.000,   6,   1,1.03291, -13.6590,   1
  3281,'KILLONAN    ', 110.0000,1,     0.000,     0.000,   7,   1,1.05153,  -9.3778,   1
  3282,'KILLONAN    ', 220.0000,1,     0.000,     0.000,   7,   1,1.05604,  -5.8418,   1
  3301,'KNOCKERA    ', 110.0000,1,     0.000,     0.000,   7,   1,1.06058,  -8.7854,   1
  3321,'KNOCKUMB    ', 110.0000,1,     0.000,     0.000,  10,   3,1.03295,  -7.7009,   5
  3341,'KELLIS      ', 110.0000,1,     0.000,     0.000,   6,   1,1.05986, -10.6407,   1
  3342,'KELLIS      ', 220.0000,1,     0.000,     0.000,   6,   1,1.05424,  -7.8348,   1
  3361,'KILTOY      ', 110.0000,1,     0.000,     0.000,   9,   3,1.04600,  -6.2965,   5
  3381,'KINNEGAD    ', 110.0000,1,     0.000,     0.000,   8,   1,1.04714,  -7.3438,   1
  3401,'KILLOTER    ', 110.0000,1,     0.000,     0.000,   5,   1,1.04194, -13.9448,   1
  3421,'KILMORE     ', 110.0000,1,     0.000,     0.000,   1,   1,1.07670,  -4.8965,   2
  3501,'LANESBOR    ', 110.0000,1,     0.000,     0.000,   9,   1,1.07303,  -6.6705,   1
  3521,'LOUTH       ', 110.0000,1,     0.000,     0.000,  10,   1,1.06444,  -5.1385,   1
  3522,'LOUTH       ', 220.0000,1,     0.000,     0.000,  10,   1,1.05139,  -2.5570,   1
  3541,'LIMERICK    ', 110.0000,1,     0.000,     0.000,   7,   1,1.04481,  -9.1255,   1
  3561,'LISDRUM     ', 110.0000,1,     0.000,     0.000,  10,   1,1.02498,  -7.3687,   1
  3572,'LONGPOIN    ', 220.0000,1,     0.000,     0.000,   3,   1,1.07500,  -4.1578,   1
  3581,'LETTERKE    ', 110.0000,1,     0.000,     0.000,   9,   1,1.04599,  -6.2962,   1
  3601,'LIBERTY     ', 110.0000,1,     0.000,     0.000,   3,   1,1.05886, -13.8078,   2
  3611,'LIBERTY     ', 110.0000,1,     0.000,     0.000,   3,   1,1.05900, -13.8002,   2
  3621,'LISHEEN     ', 110.0000,1,     0.000,     0.000,   5,   1,1.00153, -15.5910,   5
  3751,'MISERY H    ', 110.0000,1,     0.000,     0.000,   1,   1,1.05560,  -8.2008,   2
  3761,'MACETOWN    ', 110.0000,1,     0.000,     0.000,   1,   2,1.05338,  -5.3555,   1
  3781,'MCDERMOT    ', 110.0000,1,     0.000,     0.000,   1,   2,1.04618,  -5.7713,   2
  3801,'MIDLETON    ', 110.0000,1,     0.000,     0.000,   3,   1,1.05027, -13.4908,   1
  3821,'MEATH HI    ', 110.0000,1,     0.000,     0.000,  10,   1,1.04870,  -5.7074,   2
  3841,'MAYNOOTH    ', 110.0000,1,     0.000,     0.000,   2,   2,1.05843,  -6.8931,   1
  3842,'MAYNOOTH    ', 220.0000,1,     0.000,     0.000,   2,   2,1.06908,  -4.6153,   1
  3851,'MAYNOOTH    ', 110.0000,1,     0.000,     0.000,   2,   2,1.05546,  -6.1299,   1
  3852,'MAYNOOTH    ', 220.0000,1,     0.000,     0.000,   2,   2,1.07180,  -4.0386,   1
  3861,'MILLTOWN    ', 110.0000,1,     0.000,     0.000,   1,   2,1.05558,  -8.1899,   2
  3871,'MILLTOWN    ', 110.0000,1,     0.000,     0.000,   1,   2,1.06191,  -7.2001,   2
  3881,'MACROOM     ', 110.0000,1,     0.000,     0.000,   3,   1,1.06885, -11.6731,   1
  3901,'MONETEEN    ', 110.0000,1,     0.000,     0.000,   7,   1,1.04835,  -8.2950,   1
  3934,'MNYPG1      ', 380.0000,1,     0.000,     6.000,   4,   1,1.07500,   7.0568,   1
  3941,'MONEYPOI    ', 110.0000,1,     0.000,     0.000,   4,   1,1.03439,  -8.2965,   1
  3942,'MONEYPOI    ', 220.0000,1,     0.000,     0.000,   7,   1,1.08160,  -0.8801,   1
  3944,'MNYPG3      ', 380.0000,1,     0.000,     6.000,   4,   1,1.07500,   7.0568,   1
  3954,'MNYPG2      ', 380.0000,1,     0.000,     6.000,   7,   1,1.07500,   3.2653,   1
  3961,'MARINA      ', 110.0000,1,     0.000,     0.000,   3,   1,1.05912, -13.7921,   1
  3981,'MUNGRET     ', 110.0000,1,     0.000,     0.000,   7,   3,1.04810,  -8.3089,   5
  3991,'MUNGRET     ', 110.0000,1,     0.000,     0.000,   7,   3,1.04810,  -8.3082,   5
  4001,'MULLINGA    ', 110.0000,1,     0.000,     0.000,   9,   1,1.03448,  -7.7069,   1
  4021,'MALLOW      ', 110.0000,1,     0.000,     0.000,   3,   1,1.03705, -12.7071,   1
  4041,'MOY         ', 110.0000,1,     0.000,     0.000,   9,   1,1.05046, -10.6032,   1
  4061,'MULLAGHA    ', 110.0000,1,     0.000,     0.000,  10,   1,1.05086,  -5.7404,   2
  4071,'MEENTYCA    ', 110.0000,1,     0.000,     0.000,   9,   1,1.05166,  -5.7459,   4
  4081,'MONREAD     ', 110.0000,1,     0.000,     0.000,   8,   1,1.04774,  -8.3243,   1
  4201,'NEWBRIDG    ', 110.0000,1,     0.000,     0.000,   8,   1,1.04412,  -8.0861,   1
  4211,'NORTH QU    ', 110.0000,1,     0.000,     0.000,   1,   1,1.05612,  -8.1579,   2
  4221,'NAVAN       ', 110.0000,1,     0.000,     0.000,  10,   1,1.03719,  -7.4790,   1
  4242,'NORTH WA    ', 220.0000,1,     0.000,     0.000,   2,   2,1.07655,  -2.0248,   1
  4261,'NENAGH      ', 110.0000,1,     0.000,     0.000,   7,   1,1.02581, -10.6760,   2
  4281,'NANGOR      ', 110.0000,1,     0.000,     0.000,   1,   1,1.04797,  -7.6054,   2
  4341,'OLDCOURT    ', 110.0000,1,     0.000,     0.000,   3,   3,1.05747, -13.9880,   5
  4351,'OLDCOURT    ', 110.0000,1,     0.000,     0.000,   3,   3,1.05749, -13.9871,   5
  4361,'OUGHTRAG    ', 110.0000,1,     0.000,     0.000,   7,   1,1.05017,  -8.2044,   2
  4382,'OLDSTREE    ', 220.0000,1,     0.000,     0.000,   4,   1,1.07172,   3.8704,   1
  4384,'OLDSTREE    ', 380.0000,1,     0.000,     0.000,   4,   1,1.06363,   4.2443,   1
  4401,'POPPINTR    ', 110.0000,1,     0.000,     0.000,   1,   1,1.07676,  -4.8500,   2
  4441,'POLLAPHU    ', 110.0000,1,     0.000,     0.000,   6,   1,1.04824, -11.1157,   1
  4461,'POOLBEG     ', 110.0000,1,     0.000,     0.000,   1,   1,1.05716,  -8.0416,   2
  4462,'POOLBEG     ', 220.0000,1,     0.000,     0.000,   2,   2,1.07641,  -2.0544,   1
  4471,'POOLBEG     ', 110.0000,1,     0.000,     0.000,   1,   1,1.05714,  -8.0446,   2
  4472,'POOLBEG     ', 220.0000,1,     0.000,     0.000,   2,   2,1.07445,  -5.1151,   1
  4481,'PORTLAOI    ', 110.0000,1,     0.000,     0.000,   8,   1,1.05200,  -8.3764,   1
  4491,'PELLETST    ', 110.0000,1,     0.000,     0.000,   1,   1,1.04663,  -5.7382,   1
  4501,'PLATIN      ', 110.0000,1,     0.000,     0.000,  10,   3,1.03104,  -7.2805,   1
  4511,'POTTERY     ', 110.0000,1,     0.000,     0.000,   1,   1,1.04489,  -9.2121,   2
  4522,'PROSPECT    ', 220.0000,1,     0.000,     0.000,   7,   1,1.07947,  -1.9660,   1
  4621,'RYEBROOK    ', 110.0000,1,     0.000,     0.000,   2,   3,1.04487,  -6.5664,   1
  4651,'RINGSEND    ', 110.0000,1,     0.000,     0.000,   1,   2,1.05643,  -8.1401,   2
  4681,'RATHKEAL    ', 110.0000,1,     0.000,     0.000,   7,   1,1.05209,  -7.2744,   1
  4701,'RICHMOND    ', 110.0000,1,     0.000,     0.000,   9,   1,1.06597,  -6.9886,   2
  4711,'RICHMOND    ', 110.0000,1,     0.000,     0.000,   9,   1,1.06584,  -6.9920,   2
  4721,'RAFFEEN     ', 110.0000,1,     0.000,     0.000,   3,   1,1.06202, -14.0853,   1
  4722,'RAFFEEN     ', 220.0000,1,     0.000,     0.000,   3,   1,1.06123, -13.3934,   1
  4741,'RINAWADE    ', 110.0000,1,     0.000,     0.000,   2,   3,1.05203,  -6.4386,   1
  4761,'RINGASKI    ', 110.0000,1,     0.000,     0.000,   3,   1,1.06193, -14.0907,   2
  4781,'RATRUSSA    ', 110.0000,1,     0.000,     0.000,  10,   1,1.03742,  -6.9204,   1
  4901,'SHELTON     ', 110.0000,1,     0.000,     0.000,   6,   3,1.05635, -10.5367,   5
  4911,'SHELTON     ', 110.0000,1,     0.000,     0.000,   6,   3,1.05648, -10.5292,   5
  4941,'SHANNONB    ', 110.0000,1,     0.000,     0.000,   5,   1,1.07500,  -6.3106,   1
  4942,'SHANNONB    ', 220.0000,1,     0.000,     0.000,   5,   1,1.07050,  -5.5940,   1
  4961,'SHANKILL    ', 110.0000,1,     0.000,     0.000,  10,   1,1.02144,  -7.8379,   1
  4981,'SLIGO       ', 110.0000,1,     0.000,     0.000,   9,   1,1.04488,  -8.1974,   1
  4991,'SORNE HI    ', 110.0000,1,     0.000,     0.000,   9,   1,1.05205,  -5.0834,   2
  5001,'SOMERSET    ', 110.0000,1,     0.000,     0.000,   9,   1,1.06628,  -6.3767,   2
  5022,'SHELLYBA    ', 220.0000,1,     0.000,     0.000,   2,   2,1.07636,  -1.9937,   1
  5031,'STEVENST    ', 110.0000,1,     0.000,     0.000,   1,   1,1.06990,  -5.4498,   2
  5041,'SRANANAG    ', 110.0000,1,     0.000,     0.000,   9,   1,1.04653,  -7.7609,   1
  5051,'SEAL ROC    ', 110.0000,1,     0.000,     0.000,   7,   1,1.07555,  -4.2217,   4
  5061,'STRATFOR    ', 110.0000,1,     0.000,     0.000,   6,   1,1.04712, -11.1487,   2
  5071,'SEAL ROC    ', 110.0000,1,     0.000,     0.000,   7,   1,1.07555,  -4.2217,   4
  5091,'SINGLAND    ', 110.0000,1,     0.000,     0.000,   7,   1,1.04998,  -9.4057,   1
  5122,'SHELLYBA    ', 220.0000,1,     0.000,     0.000,   2,   2,1.07519,  -4.4790,   1
  5131,'TANEY       ', 110.0000,1,     0.000,     0.000,   1,   1,1.06212,  -7.2060,   2
  5141,'TARBERT     ', 110.0000,1,     0.000,     0.000,   7,   1,1.07704,  -4.3979,   1
  5142,'TARBERT     ', 220.0000,1,     0.000,     0.000,   7,   1,1.07651,  -2.9513,   1
  5172,'TYNAGH      ', 220.0000,1,     0.000,     0.000,   4,   1,1.07500,   3.6732,   1
  5181,'TRABEG      ', 110.0000,1,     0.000,     0.000,   3,   1,1.05847, -13.8792,   1
  5202,'TURLOUGH    ', 220.0000,1,     0.000,     0.000,   2,   1,1.07648,  -3.1484,   1
  5221,'TULLABRA    ', 110.0000,1,     0.000,     0.000,   4,   1,1.03321,  -8.4403,   2
  5241,'TAWN_A      ', 110.0000,1,     0.000,     0.000,   9,   3,1.05050, -10.6042,   2
  5251,'TAWN_B      ', 110.0000,1,     0.000,     0.000,   9,   3,1.05050, -10.6042,   2
  5261,'TRIEN       ', 110.0000,1,     0.000,     0.000,   7,   1,1.07795,  -5.3026,   1
  5281,'TRALEE      ', 110.0000,1,     0.000,     0.000,   7,   1,1.06715,  -6.7938,   1
  5301,'THURLES     ', 110.0000,1,     0.000,     0.000,   5,   1,1.00677, -15.2600,   1
  5321,'THORNSBE    ', 110.0000,1,     0.000,     0.000,   8,   1,1.04571,  -7.2907,   2
  5341,'TONROE      ', 110.0000,1,     0.000,     0.000,   9,   1,1.03770,  -7.2835,   2
  5361,'TRILLICK    ', 110.0000,1,     0.000,     0.000,   9,   1,1.05013,  -5.2140,   2
  5381,'TIPPERAR    ', 110.0000,1,     0.000,     0.000,   5,   1,1.03516, -13.4725,   1
  5441,'WATERFOR    ', 110.0000,1,     0.000,     0.000,   5,   1,1.04320, -13.8525,   1
  5462,'WOODLAND    ', 220.0000,1,     0.000,     0.000,   2,   1,1.07563,  -1.9460,   1
  5464,'WOODLAND    ', 380.0000,1,     0.000,     0.000,   2,   1,1.02804,   1.2705,   1
  5481,'WHITEGAT    ', 110.0000,1,     0.000,     0.000,   3,   3,1.05589, -13.9717,   1
  5501,'WEXFORD     ', 110.0000,1,     0.000,     0.000,   6,   1,1.04990, -14.0836,   1
  5521,'WOLFE TO    ', 110.0000,1,     0.000,     0.000,   1,   1,1.04581,  -5.7928,   2
 10204,'ARDNACRU    ',  38.0000,2,     0.000,     0.000,   4,   5,1.04724,  -6.1016,   2
 10205,'ARDNACRU    ',  38.0000,1,     0.000,     0.000,   4,   1,1.02836, -18.8209,   2
 10261,'ARDNACRU    ', 110.0000,1,     0.000,     0.000,   4,   1,1.04880,  -9.3482,   1
 10271,'ARDNG1      ',  10.5000,2,     0.000,     0.000,   4,   1,1.00390,  -5.2429,   3
 10272,'ARDNG2      ',  10.5000,2,     0.000,     0.000,   4,   1,1.00929,  -4.7327,   3
 10273,'ARDNG3      ',  10.5000,2,     0.000,     0.000,   4,   1,0.99727,  -9.3482,   3
 10274,'ARDNG4      ',  10.5000,2,     0.000,     0.000,   4,   1,0.99823,  -9.3482,   3
 10401,'AGHADA      ',  10.0000,1,     0.000,     0.000,   3,   1,1.01535, -14.0101,   3
 10471,'AGH_G1      ',  20.0000,2,     0.000,     0.000,   3,   1,0.99957,  -4.2403,   3
 10472,'AGH_G11     ',  10.5000,2,     0.000,     0.000,   3,   1,0.99677, -14.0165,   3
 10473,'AGH_G12     ',  10.5000,2,     0.000,     0.000,   3,   1,0.99677, -14.0165,   3
 10474,'AGH_G14     ',  10.5000,2,     0.000,     0.000,   3,   1,0.99677, -14.0165,   3
 10475,'AGH_PEAK    ',  10.5000,2,     0.000,     0.000,   3,   1,1.00152, -14.0101,   3
 10602,'ARIGNA      ',  20.0000,2,     0.000,     0.000,   9,   5,1.03718,  -6.3740,   2
 10619,'ARIGNA_T    ', 110.0000,1,     0.000,     0.000,   9,   1,1.04839,  -6.9966,   1
 10801,'AHANE       ',  11.0000,1,     0.000,     0.000,   7,   1,1.04621, -10.2216,   2
 11204,'ARKLOW      ',  38.0000,2,     0.000,     0.000,   6,   5,1.02116, -14.0482,   2
 11302,'ATHEA       ',  20.0000,1,     0.000,     0.000,   7,   5,1.01338,  -3.6824,   4
 11371,'ATHEA       ',   1.0000,2,     0.000,     0.000,   7,   5,0.99876,  -3.3585,   4
 11404,'ATHLONE     ',  38.0000,1,     0.000,     0.000,   9,   1,1.04302, -13.4008,   2
 11461,'ATH_CAP     ', 110.0000,1,     0.000,     0.000,   9,   1,1.06534,  -7.8893,   1
 12001,'ARTANE      ',  10.0000,1,     0.000,     0.000,   1,   1,1.03867,  -7.2449,   2
 12202,'ATHY        ',  20.0000,1,     0.000,     0.000,   8,   1,1.03744, -19.1987,   2
 12302,'BALLYWAT    ',  20.0000,1,     0.000,     0.000,   6,   1,1.00509, -10.9800,   4
 12371,'BALLYWAT    ',   0.4000,2,     0.000,     0.000,   6,   5,1.01878, -10.0825,   4
 12502,'BOOLTIAG    ',  20.0000,1,     0.000,     0.000,   4,   1,1.00368,  -7.1879,   4
 12571,'BOOLTIAG    ',   0.6900,2,     0.000,     0.000,   4,   5,1.01392,  -6.2911,   4
 12702,'BALTRASN    ',  20.0000,1,     0.000,     0.000,  10,   1,1.02041, -12.1151,   2
 12804,'BALLYLIC    ',  38.0000,2,     0.000,     0.000,   3,   5,1.04514, -13.0852,   2
 13001,'BALLYBEG    ',  10.0000,1,     0.000,     0.000,   6,   1,1.04507, -11.8001,   2
 13204,'BLAKE       ',  38.0000,1,     0.000,     0.000,   8,   1,1.02480, -12.7820,   2
 13219,'BLAKE T     ', 110.0000,1,     0.000,     0.000,   8,   1,1.04049,  -7.8170,   1
 13404,'BINBANE     ',  38.0000,2,     0.000,     0.000,   9,   5,1.02740,  -7.8052,   2
 13501,'BARODA      ',  10.0000,1,     0.000,     0.000,   8,   1,1.03940,  -9.0339,   2
 13601,'BALLYDIN    ',  10.0000,1,     0.000,     0.000,   5,   1,1.02451, -16.9913,   2
 13604,'BALLYDIN    ',  38.0000,1,     0.000,     0.000,   5,   1,1.02446, -16.5962,   2
 13802,'BARNAHEL    ',  20.0000,1,     0.000,     0.000,   3,   1,1.03848, -17.5589,   2
 13804,'BARNAHEL    ',  38.0000,1,     0.000,     0.000,   3,   1,1.05583, -15.9086,   2
 14002,'BELLACOR    ',  20.0000,2,     0.000,     0.000,   9,   5,1.03076, -11.6043,   2
 14004,'BELLACOR    ',  38.0000,1,     0.000,     0.000,   9,   1,1.00159, -10.5135,   1
 14061,'BELL_CAP    ', 110.0000,1,     0.000,     0.000,   9,   1,1.05196, -10.5135,   1
 14204,'BLACKROC    ',  38.0000,1,     0.000,     0.000,   1,   1,1.02571, -11.4965,   2
 14401,'BANDON      ',  10.0000,1,     0.000,     0.000,   3,   1,1.04637, -15.8581,   2
 14404,'BANDON      ',  38.0000,2,     0.000,     0.000,   3,   5,1.04897, -19.4567,   2
 14461,'BAN_CAP     ', 110.0000,1,     0.000,     0.000,   3,   1,1.05345, -14.7185,   1
 14604,'BARRYMOR    ',  38.0000,2,     0.000,     0.000,   5,   3,1.03051, -21.0105,   2
 14619,'BARRYM T    ', 110.0000,1,     0.000,     0.000,   5,   1,1.04572, -14.2752,   1
 14804,'BUTLERST    ',  38.0000,2,     0.000,     0.000,   5,   5,1.02324, -19.3756,   2
 15001,'BRINNY      ',  10.0000,1,     0.000,     0.000,   3,   1,1.04614, -15.8633,   5
 15801,'CABRA       ',  10.0000,1,     0.000,     0.000,   1,   1,1.03251,  -7.9137,   2
 16202,'COOLROE     ',  20.0000,1,     0.000,     0.000,   3,   1,1.05086, -14.8388,   2
 16302,'CORDERRY    ',  20.0000,1,     0.000,     0.000,   9,   5,1.01500,  -2.8720,   7
 16351,'CORDERRY    ',  20.0000,1,     0.000,     0.000,   9,   5,1.01631,  -1.1374,   1
 16354,'CORDERRY    ',  20.0000,1,     0.000,     0.000,   9,   5,1.01487,   0.1734,   1
 16361,'CARANNE     ',  20.0000,1,     0.000,     0.000,   9,   5,1.01576,  -0.8229,   1
 16362,'CORDERRY    ',  20.0000,1,     0.000,     0.000,   9,   5,1.01440,  -1.1721,   1
 16364,'CORDERRY    ',  20.0000,1,     0.000,     0.000,   9,   5,1.01492,   0.2170,   1
 16365,'CORDERRY    ',  20.0000,1,     0.000,     0.000,   9,   5,1.01485,   0.1992,   1
 16366,'CORDERRY    ',  20.0000,1,     0.000,     0.000,   9,   5,1.01665,  -1.0614,   1
 16367,'TULLYNAM    ',  20.0000,1,     0.000,     0.000,   9,   1,1.03389,  -2.3711,   1
 16371,'CARANNE     ',   0.6900,2,     0.000,     0.000,   9,   5,1.00535,   0.2989,   1
 16372,'BLACK BA    ',   0.6900,2,     0.000,     0.000,   9,   5,1.00397,  -0.0472,   1
 16373,'CORDERRY    ',   0.6900,2,     0.000,     0.000,   9,   5,1.00504,  -0.0532,   1
 16374,'CORDERRY    ',   0.6900,2,     0.000,     0.000,   9,   5,1.00718,   1.2623,   1
 16375,'CORDERRY    ',   0.6900,2,     0.000,     0.000,   9,   5,1.00475,   1.2681,   1
 16376,'CORDERRY    ',   0.6900,2,     0.000,     0.000,   9,   5,1.01287,  -0.0676,   1
 16377,'TULLYNAM    ',   0.6900,2,     0.000,     0.000,   9,   1,1.01716,  -2.3440,   1
 16378,'CARANNE     ',   0.6900,2,     0.000,     0.000,   9,   5,1.00085,   0.2628,   1
 16411,'CASHLA      ', 110.0000,1,     0.000,     0.000,   9,   1,1.07531,  -5.0032,   1
 16461,'CASH_CAP    ', 110.0000,1,     0.000,     0.000,   9,   1,1.07531,  -5.0032,   1
 16502,'CLAHANE     ',  20.0000,1,     0.000,     0.000,   7,   5,1.01265,  -4.3483,   1
 16571,'CLAHANE     ',   0.6900,2,     0.000,     0.000,   7,   5,1.01553,  -4.5006,   1