<!DOCTYPE HTML PUBLIC "-//W3C//DTD HTML 4.0 Transitional//EN">
<!-- saved from url=(0082)http://www.eirgrid.com/EirgridPortal/uploads/Publications/Summer%20Peak%202014.raw -->
<HTML><HEAD>
<META http-equiv=Content-Type content="text/html; charset=windows-1252">
<META content="MSHTML 6.00.2900.3492" name=GENERATOR></HEAD>
<BODY><PRE>0,   100.00          / PSS/E-30.3    WED, NOV 26 2008  13:27
/ CASE: 2014;  AUTUMN 01/07/2014; FORECAST STATEMENT 2008 -
/ FS08_SEP08 - MEMO  GALLERY_T;  16:38:53  TUESDAY, SEPTEMBE
    10,'F_M_____    ',  38.0000,1,     0.000,     0.000,   1,   3,1.04691, -12.5529,   2
    11,'FMN_LOOP    ',  38.0000,1,     0.000,     0.000,   1,   1,1.03653,  -8.7549,   2
    12,'BEDFORD     ',  38.0000,1,     0.000,     0.000,   1,   1,1.03843,  -9.4523,   2
    13,'M_R_____    ',  38.0000,1,     0.000,     0.000,   1,   1,1.03997, -10.7195,   2
    14,'F_I_____    ',  38.0000,1,     0.000,     0.000,   1,   3,1.02281,  -9.7309,   2
    15,'I_M_____    ',  38.0000,1,     0.000,     0.000,   1,   1,1.03339,  -9.4389,   2
  1021,'ARDNACRU    ', 110.0000,1,     0.000,     0.000,   4,   1,1.04213,  -0.0841,   1
  1041,'AGHADA      ', 110.0000,1,     0.000,     0.000,   3,   1,1.05665,   0.4977,   1
  1042,'AGHADA      ', 220.0000,1,     0.000,     0.000,   3,   1,1.07425,   9.6137,   1
  1052,'AGHADA2     ', 220.0000,1,     0.000,     0.000,   3,   1,1.07500,   3.0775,   1
  1061,'ARIGNA      ', 110.0000,1,     0.000,     0.000,   9,   1,1.06349,  -2.7975,   2
  1062,'AGHADA3     ', 220.0000,1,     0.000,     0.000,   3,   1,1.07500,   3.0775,   1
  1071,'AGANNYGA    ', 110.0000,1,     0.000,     0.000,   4,   1,1.06416,  -0.7071,   1
  1072,'AGHADA4     ', 220.0000,1,     0.000,     0.000,   3,   1,1.07452,   9.6700,   1
  1081,'AHANE       ', 110.0000,1,     0.000,     0.000,   7,   1,1.04536,   0.7691,   2
  1091,'ADAMSTOW    ', 110.0000,1,     0.000,     0.000,   1,   1,1.05839,  -4.3374,   2
  1101,'ANNER       ', 110.0000,1,     0.000,     0.000,   5,   3,1.01074,  -8.1472,   5
  1121,'ARKLOW      ', 110.0000,1,     0.000,     0.000,   6,   1,1.04018,  -6.3191,   1
  1122,'ARKLOW      ', 220.0000,1,     0.000,     0.000,   6,   1,1.05007,  -4.1251,   1
  1131,'ATHEA       ', 110.0000,1,     0.000,     0.000,   7,   5,1.07500,   5.3161,   4
  1141,'ATHLONE     ', 110.0000,1,     0.000,     0.000,   9,   1,1.07689,  -2.7687,   1
  1161,'AUGHINIS    ', 110.0000,1,     0.000,     0.000,   7,   3,1.07500,   5.5712,   1
  1181,'ARVA        ', 110.0000,1,     0.000,     0.000,  10,   1,1.05814,  -6.1317,   1
  1201,'ARTANE      ', 110.0000,1,     0.000,     0.000,   1,   1,1.04005,  -4.9515,   2
  1221,'ATHY        ', 110.0000,1,     0.000,     0.000,   8,   1,1.02625,  -6.6492,   1
  1231,'BALLYWAT    ', 110.0000,1,     0.000,     0.000,   6,   1,1.05221,  -6.0244,   4
  1241,'BALLYCUM    ', 110.0000,1,     0.000,     0.000,   7,   1,1.04056,   1.0812,   1
  1251,'BOOLTIAG    ', 110.0000,1,     0.000,     0.000,   4,   1,1.03115,  -1.2200,   2
  1271,'BALTRASN    ', 110.0000,1,     0.000,     0.000,  10,   1,1.03341,  -5.2573,   1
  1281,'BALLYLIC    ', 110.0000,1,     0.000,     0.000,   3,   1,1.04041,  -0.1175,   2
  1301,'BALLYBEG    ', 110.0000,1,     0.000,     0.000,   6,   1,1.03443,  -7.0800,   1
  1321,'BLAKE       ', 110.0000,1,     0.000,     0.000,   8,   1,1.03018,  -5.8606,   2
  1331,'BALLYCAD    ', 110.0000,1,     0.000,     0.000,   6,   1,1.04983,  -5.3014,   1
  1341,'BINBANE     ', 110.0000,1,     0.000,     0.000,   9,   1,1.03413,  -2.7768,   2
  1351,'BARODA      ', 110.0000,1,     0.000,     0.000,   8,   1,1.03317,  -6.3415,   1
  1361,'BALLYDIN    ', 110.0000,1,     0.000,     0.000,   5,   1,1.01151,  -7.7404,   1
  1371,'BALLYMUR    ', 110.0000,1,     0.000,     0.000,   4,   1,1.02634,  -1.7662,   2
  1381,'BARNAHEL    ', 110.0000,1,     0.000,     0.000,   3,   1,1.05351,  -0.0451,   1
  1391,'BARNAHEL    ', 110.0000,1,     0.000,     0.000,   3,   1,1.05560,  -0.3218,   1
  1401,'BELLACOR    ', 110.0000,1,     0.000,     0.000,   9,   1,1.06404,  -4.8523,   1
  1421,'BLACKROC    ', 110.0000,1,     0.000,     0.000,   1,   2,1.03575,  -6.8718,   2
  1441,'BANDON      ', 110.0000,1,     0.000,     0.000,   3,   1,1.04515,  -1.2423,   1
  1461,'BARRYMOR    ', 110.0000,1,     0.000,     0.000,   5,   1,1.03136,  -2.8926,   2
  1471,'BALGRIFF    ', 110.0000,1,     0.000,     0.000,   1,   1,1.07214,  -2.9904,   2
  1472,'BALGRIFF    ', 220.0000,1,     0.000,     0.000,   1,   1,1.07589,  -0.8272,   2
  1481,'BUTLERST    ', 110.0000,1,     0.000,     0.000,   5,   1,1.01131,  -7.2545,   1
  1501,'BRINNY      ', 110.0000,1,     0.000,     0.000,   3,   1,1.04501,  -1.2507,   5
  1511,'BRINNY      ', 110.0000,1,     0.000,     0.000,   3,   1,1.04502,  -1.2503,   5
  1541,'BANOGE      ', 110.0000,1,     0.000,     0.000,   6,   1,1.03727,  -6.5557,   1
  1571,'BUNBEG      ', 110.0000,1,     0.000,     0.000,   9,   1,1.01484,  -4.0282,   2
  1581,'CABRA       ', 110.0000,1,     0.000,     0.000,   1,   2,1.03858,  -5.0365,   2
  1601,'CLASHAVO    ', 110.0000,1,     0.000,     0.000,   3,   1,1.05942,   1.2482,   1
  1602,'CLASHAVO    ', 220.0000,1,     0.000,     0.000,   3,   1,1.06536,   6.2646,   1
  1611,'CLONKEEN    ', 110.0000,1,     0.000,     0.000,   7,   1,1.06925,   2.4067,   1
  1621,'COOLROE     ', 110.0000,1,     0.000,     0.000,   3,   1,1.04701,  -0.4624,   1
  1631,'CORDERRY    ', 110.0000,1,     0.000,     0.000,   9,   1,1.06654,  -2.4071,   1
  1641,'CASHLA      ', 110.0000,1,     0.000,     0.000,   9,   1,1.07396,  -0.1761,   1
  1642,'CASHLA      ', 220.0000,1,     0.000,     0.000,   9,   1,1.06793,   3.4366,   1
  1651,'CLAHANE     ', 110.0000,1,     0.000,     0.000,   7,   5,1.07451,   4.4881,   1
  1661,'CASTLEBA    ', 110.0000,1,     0.000,     0.000,   9,   1,1.05917,  -4.7621,   1
  1681,'CARRIGAD    ', 110.0000,1,     0.000,     0.000,   3,   1,1.05561,   0.4865,   1
  1691,'CENTRAL     ', 110.0000,1,     0.000,     0.000,   1,   1,1.03709,  -6.7773,   1
  1701,'CATH_FAL    ', 110.0000,1,     0.000,     0.000,   9,   1,1.05000,  -2.8783,   1
  1711,'CROMCAST    ', 110.0000,1,     0.000,     0.000,   1,   1,1.07163,  -3.0492,   1
  1721,'CAHIR       ', 110.0000,1,     0.000,     0.000,   5,   1,1.02468,  -7.2861,   1
  1731,'CROMCAST    ', 110.0000,1,     0.000,     0.000,   1,   1,1.07163,  -3.0492,   1
  1741,'CARRICKM    ', 110.0000,1,     0.000,     0.000,   2,   2,1.03724,  -6.7650,   2
  1742,'CARRICKM    ', 220.0000,1,     0.000,     0.000,   2,   2,1.06945,  -2.2212,   1
  1751,'CARRICKM    ', 110.0000,1,     0.000,     0.000,   2,   1,1.06945,  -2.2212,   1
  1761,'CLIFF       ', 110.0000,1,     0.000,     0.000,   9,   1,1.04991,  -2.7723,   1
  1781,'CASTLEFA    ', 110.0000,1,     0.000,     0.000,   7,   3,1.07464,   5.5536,   5
  1791,'CASTLEFA    ', 110.0000,1,     0.000,     0.000,   7,   3,1.07463,   5.5525,   5
  1801,'COOKSTOW    ', 110.0000,1,     0.000,     0.000,   1,   2,1.06159,  -4.9309,   2
  1811,'COOKSTOW    ', 110.0000,1,     0.000,     0.000,   1,   1,1.02561,  -7.5037,   1
  1821,'CLOON       ', 110.0000,1,     0.000,     0.000,   9,   1,1.06933,  -2.0945,   1
  1831,'CAMUS       ', 110.0000,1,     0.000,     0.000,   9,   1,1.05793,  -1.5539,   2
  1841,'CRANE       ', 110.0000,1,     0.000,     0.000,   6,   1,1.04606,  -6.1595,   1
  1851,'CHERRYWO    ', 110.0000,1,     0.000,     0.000,   2,   1,1.03528,  -6.8630,   1
  1861,'CARICKON    ', 110.0000,1,     0.000,     0.000,   9,   1,1.06207,  -3.3567,   1
  1871,'COLLEGE     ', 110.0000,1,     0.000,     0.000,   2,   1,1.04878,  -3.9480,   1
  1881,'CHARLEVI    ', 110.0000,1,     0.000,     0.000,   3,   1,1.01866,  -0.6058,   1
  1901,'CARLOW      ', 110.0000,1,     0.000,     0.000,   6,   1,1.03043,  -7.0120,   1
  1921,'COW CROS    ', 110.0000,1,     0.000,     0.000,   3,   1,1.04989,  -0.0927,   1
  1931,'CUNGHILL    ', 110.0000,1,     0.000,     0.000,   9,   1,1.06943,  -3.4207,   4
  1941,'CUSHALIN    ', 110.0000,1,     0.000,     0.000,   8,   1,1.07015,  -3.7059,   1
  1951,'CARROWBE    ', 110.0000,1,     0.000,     0.000,   9,   1,1.04681,  -5.4609,   1
  1961,'CASTLEVI    ', 110.0000,1,     0.000,     0.000,   3,   1,1.04452,  -0.2033,   1
  1971,'COOMAGEA    ', 110.0000,1,     0.000,     0.000,   7,   1,1.07131,   2.6537,   4
  1981,'CORRACLA    ', 110.0000,1,     0.000,     0.000,   9,   1,1.05444,  -5.7555,   1
  1991,'CASTLEDO    ', 110.0000,1,     0.000,     0.000,   6,   1,1.05152,  -5.4160,   1
  2001,'CULLENAG    ', 110.0000,1,     0.000,     0.000,   5,   1,1.02125,  -6.5250,   1
  2002,'CULLENAG    ', 220.0000,1,     0.000,     0.000,   5,   1,1.03591,  -3.9414,   1
  2021,'CITY WES    ', 110.0000,1,     0.000,     0.000,   1,   1,1.06070,  -4.9780,   2
  2031,'CHARLESL    ', 110.0000,1,     0.000,     0.000,   6,   1,1.03039,  -7.3728,   1
  2041,'CORDUFF     ', 110.0000,1,     0.000,     0.000,   2,   1,1.04979,  -3.8509,   1
  2042,'CORDUFF     ', 220.0000,1,     0.000,     0.000,   2,   1,1.07417,  -0.4153,   1
  2051,'CORDUFF     ', 110.0000,1,     0.000,     0.000,   2,   1,1.04979,  -3.8509,   1
  2081,'DUNKETTL    ', 110.0000,4,     0.000,     0.000,   3,   1,1.00000,   0.0000,   5
  2101,'DUNDALK     ', 110.0000,1,     0.000,     0.000,  10,   1,1.04954,  -5.4361,   2
  2121,'DRUMLINE    ', 110.0000,1,     0.000,     0.000,   4,   1,1.02761,  -1.7037,   1
  2141,'DUNGARVA    ', 110.0000,1,     0.000,     0.000,   5,   1,1.02190,  -4.8633,   1
  2161,'DOON        ', 110.0000,1,     0.000,     0.000,   5,   1,1.01133,  -8.1113,   1
  2181,'DRYBRIDG    ', 110.0000,1,     0.000,     0.000,  10,   1,1.02231,  -6.2606,   1
  2202,'DUNSTOWN    ', 220.0000,1,     0.000,     0.000,   2,   7,1.07103,  -1.5107,   1
  2204,'DUNSTOWN    ', 380.0000,1,     0.000,     0.000,   2,   1,1.02270,   1.8741,   1
  2221,'DUNMANWA    ', 110.0000,1,     0.000,     0.000,   3,   1,1.04842,  -0.3090,   1
  2231,'DERRYBRI    ', 110.0000,1,     0.000,     0.000,   4,   1,1.06831,  -0.4607,   2
  2241,'DALLOW      ', 110.0000,1,     0.000,     0.000,   5,   1,1.05849,  -2.2213,   2
  2251,'DARDISTO    ', 110.0000,1,     0.000,     0.000,   1,   1,1.07200,  -3.0476,   1
  2261,'DERRYIRO    ', 110.0000,1,     0.000,     0.000,   8,   1,1.04085,  -5.3729,   1
  2281,'DALTON      ', 110.0000,1,     0.000,     0.000,   9,   1,1.06273,  -4.0538,   1
  2301,'DUNFIRTH    ', 110.0000,1,     0.000,     0.000,   8,   1,1.04251,  -5.0507,   2
  2321,'DRUMKEEN    ', 110.0000,1,     0.000,     0.000,   9,   1,1.04410,  -2.4187,   1
  2361,'ENNIS       ', 110.0000,1,     0.000,     0.000,   4,   1,1.03355,  -1.4294,   1
  2481,'FASS EAS    ', 110.0000,1,     0.000,     0.000,   2,   2,1.03128,  -7.0807,   2
  2491,'FASS WES    ', 110.0000,1,     0.000,     0.000,   2,   2,1.03156,  -7.0653,   2
  2521,'FLAGFORD    ', 110.0000,1,     0.000,     0.000,   9,   1,1.06359,  -3.2192,   1
  2522,'FLAGFORD    ', 220.0000,1,     0.000,     0.000,   9,   7,1.05978,  -0.7927,   1
  2531,'FINNSTOW    ', 110.0000,1,     0.000,     0.000,   1,   1,1.05843,  -4.3334,   1
  2532,'FINNSTOW    ', 220.0000,1,     0.000,     0.000,   2,   1,1.06959,  -2.3462,   1
  2541,'FRN ST A    ', 110.0000,1,     0.000,     0.000,   1,   2,1.04861,  -6.1757,   2
  2551,'FRN ST B    ', 110.0000,1,     0.000,     0.000,   1,   2,1.06153,  -4.9231,   2
  2561,'FIN_URBA    ', 110.0000,1,     0.000,     0.000,   2,   2,1.04300,  -4.7568,   1
  2562,'FINGLAS     ', 220.0000,1,     0.000,     0.000,   2,   7,1.07500,  -0.5971,   1
  2571,'FIN_RURA    ', 110.0000,1,     0.000,     0.000,   2,   2,1.07167,  -3.0134,   1
  2581,'FIN_SUBU    ', 110.0000,1,     0.000,     0.000,   2,   1,1.04864,  -3.9730,   1
  2591,'FIN_OPEN    ', 110.0000,1,     0.000,     0.000,   2,   1,1.07500,  -0.5971,   2
  2671,'GARVAGH     ', 110.0000,1,     0.000,     0.000,   9,   1,1.07161,  -2.2217,   4
  2681,'GILRA       ', 110.0000,1,     0.000,     0.000,   9,   3,1.06484,  -3.5138,   2
  2701,'GLASMORE    ', 110.0000,1,     0.000,     0.000,   1,   2,1.06001,  -3.7933,   2
  2721,'GRIFFINR    ', 110.0000,1,     0.000,     0.000,   2,   2,1.04875,  -5.1205,   2
  2731,'GLANLEE     ', 110.0000,1,     0.000,     0.000,   7,   5,1.07137,   2.6704,   4
  2741,'GREAT IS    ', 110.0000,1,     0.000,     0.000,   6,   1,1.01783,  -7.0546,   1
  2742,'GREAT IS    ', 220.0000,1,     0.000,     0.000,   6,   7,1.03549,  -4.5473,   1
  2761,'GRANGE      ', 110.0000,1,     0.000,     0.000,   1,   2,1.07069,  -3.0692,   2
  2771,'GARROW      ', 110.0000,1,     0.000,     0.000,   7,   1,1.07239,   2.4718,   7
  2781,'GALWAY      ', 110.0000,1,     0.000,     0.000,   9,   1,1.05996,  -0.9115,   1
  2801,'GOLAGH      ', 110.0000,1,     0.000,     0.000,   9,   1,1.04647,  -2.6326,   4
  2821,'GORTAWEE    ', 110.0000,1,     0.000,     0.000,   9,   1,1.05428,  -6.2826,   1
  2841,'GORMAN      ', 110.0000,1,     0.000,     0.000,  10,   1,1.03016,  -5.8855,   1
  2842,'GORMAN      ', 220.0000,1,     0.000,     0.000,  10,   1,1.04746,  -2.9859,   1
  2852,'GLANAGOW    ', 220.0000,1,     0.000,     0.000,   3,   1,1.07535,   3.1752,   1
  2861,'GRANGE C    ', 110.0000,1,     0.000,     0.000,   1,   1,1.05813,  -4.3495,   2
  2881,'GLENLARA    ', 110.0000,1,     0.000,     0.000,   3,   1,1.00605,  -0.5550,   2
  2941,'HAROLDS     ', 110.0000,1,     0.000,     0.000,   1,   2,1.04893,  -6.1643,   2
  2951,'HEUSTON     ', 110.0000,1,     0.000,     0.000,   1,   1,1.06192,  -4.9013,   1
  2962,'HUNTSTOW    ', 220.0000,1,     0.000,     0.000,   2,   1,1.07532,  -0.5132,   4
  2972,'HUNTSTOW    ', 220.0000,1,     0.000,     0.000,   2,   1,1.07474,  -0.0758,   4
  2981,'HARNETTS    ', 110.0000,1,     0.000,     0.000,   3,   1,1.05491,   0.4569,   2
  3061,'INISCARR    ', 110.0000,1,     0.000,     0.000,   3,   1,1.04954,  -0.3403,   1
  3081,'INCH_CIT    ', 110.0000,1,     0.000,     0.000,   1,   2,1.06258,  -4.8506,   2
  3082,'INCHICOR    ', 220.0000,1,     0.000,     0.000,   2,   2,1.07347,  -2.4385,   1
  3091,'INCH_COU    ', 110.0000,1,     0.000,     0.000,   1,   1,1.06007,  -4.2118,   2
  3101,'IKERRIN     ', 110.0000,1,     0.000,     0.000,   5,   1,1.02421,  -6.8684,   2
  3122,'IRISHTOW    ', 220.0000,1,     0.000,     0.000,   2,   1,1.07500,  -1.6903,   1
  3201,'KNOCKRAH    ', 110.0000,1,     0.000,     0.000,   3,   1,1.04767,   0.0546,   1
  3202,'KNOCKRAH    ', 220.0000,1,     0.000,     0.000,   3,   7,1.06536,   7.5145,   1
  3211,'KNOCKRAH    ', 110.0000,1,     0.000,     0.000,   3,   1,1.06536,   7.5145,   1
  3212,'KNOCKRAH    ', 220.0000,1,     0.000,     0.000,   3,   1,1.06126,   1.0783,   1
  3221,'KILBARRY    ', 110.0000,1,     0.000,     0.000,   3,   1,1.04021,  -0.7329,   1
  3241,'KILTEEL     ', 110.0000,1,     0.000,     0.000,   8,   1,1.03907,  -6.5355,   2
  3261,'KILKENNY    ', 110.0000,1,     0.000,     0.000,   6,   1,0.99327,  -9.4062,   1
  3281,'KILLONAN    ', 110.0000,1,     0.000,     0.000,   7,   1,1.04569,   0.7957,   1
  3282,'KILLONAN    ', 220.0000,1,     0.000,     0.000,   7,   7,1.04906,   3.8522,   1
  3301,'KNOCKERA    ', 110.0000,1,     0.000,     0.000,   7,   1,1.05560,   2.0533,   1
  3321,'KNOCKUMB    ', 110.0000,1,     0.000,     0.000,  10,   3,1.02317,  -6.3060,   5
  3341,'KELLIS      ', 110.0000,1,     0.000,     0.000,   6,   1,1.03559,  -6.8901,   1
  3342,'KELLIS      ', 220.0000,1,     0.000,     0.000,   6,   1,1.03692,  -4.0551,   1
  3361,'KILTOY      ', 110.0000,1,     0.000,     0.000,   9,   3,1.03962,  -2.7738,   5
  3381,'KINNEGAD    ', 110.0000,1,     0.000,     0.000,   8,   1,1.03941,  -5.4507,   1
  3401,'KILLOTER    ', 110.0000,1,     0.000,     0.000,   5,   1,1.01282,  -7.2287,   1
  3421,'KILMORE     ', 110.0000,1,     0.000,     0.000,   1,   1,1.07162,  -3.0488,   2
  3431,'KILMAHUD    ', 110.0000,1,     0.000,     0.000,   1,   1,1.05785,  -4.3662,   1
  3441,'KILMURRY    ', 110.0000,1,     0.000,     0.000,   6,   1,1.01113,  -7.5497,   1
  3451,'KENTSTOW    ', 110.0000,1,     0.000,     0.000,  10,   1,1.02344,  -6.2343,   1
  3501,'LANESBOR    ', 110.0000,1,     0.000,     0.000,   9,   1,1.07500,  -2.7766,   1
  3521,'LOUTH       ', 110.0000,1,     0.000,     0.000,  10,   1,1.06784,  -4.7126,   1
  3522,'LOUTH       ', 220.0000,1,     0.000,     0.000,  10,   7,1.04325,  -2.1685,   1
  3541,'LIMERICK    ', 110.0000,1,     0.000,     0.000,   7,   1,1.03867,   0.7367,   1
  3561,'LISDRUM     ', 110.0000,1,     0.000,     0.000,  10,   1,1.06730,  -7.2138,   1
  3572,'LONGPOIN    ', 220.0000,1,     0.000,     0.000,   3,   1,1.07500,   9.7454,   1
  3581,'LETTERKE    ', 110.0000,1,     0.000,     0.000,   9,   1,1.03961,  -2.7735,   1
  3601,'LIBERTY     ', 110.0000,1,     0.000,     0.000,   3,   1,1.04135,  -0.8352,   2
  3611,'LIBERTY     ', 110.0000,1,     0.000,     0.000,   3,   1,1.04151,  -0.8260,   2
  3621,'LISHEEN     ', 110.0000,1,     0.000,     0.000,   5,   1,1.01376,  -9.1044,   5
  3641,'LODGEWOO    ', 110.0000,1,     0.000,     0.000,   6,   1,1.05007,  -5.4641,   1
  3642,'LODGEWOO    ', 220.0000,1,     0.000,     0.000,   6,   1,1.04537,  -4.5954,   1
  3751,'MISERY H    ', 110.0000,1,     0.000,     0.000,   1,   1,1.04960,  -6.1172,   2
  3761,'MACETOWN    ', 110.0000,1,     0.000,     0.000,   1,   2,1.04773,  -4.0135,   1
  3772,'CAVAN       ', 220.0000,1,     0.000,     0.000,  10,   1,1.04414,  -0.6922,   1
  3774,'CAVAN       ', 380.0000,1,     0.000,     0.000,  10,   1,1.03423,   1.5889,   1
  3781,'MCDERMOT    ', 110.0000,1,     0.000,     0.000,   1,   2,1.03876,  -5.0182,   2
  3801,'MIDLETON    ', 110.0000,1,     0.000,     0.000,   3,   1,1.04079,  -0.2091,   1
  3821,'MEATH HI    ', 110.0000,1,     0.000,     0.000,  10,   1,1.04245,  -5.5681,   2
  3841,'MAYNOOTH    ', 110.0000,1,     0.000,     0.000,   2,   2,1.05090,  -4.9714,   1
  3842,'MAYNOOTH    ', 220.0000,1,     0.000,     0.000,   2,   7,1.06547,  -2.4764,   1
  3851,'MAYNOOTH    ', 110.0000,1,     0.000,     0.000,   2,   2,1.05055,  -4.1889,   1
  3852,'MAYNOOTH    ', 220.0000,1,     0.000,     0.000,   2,   2,1.06861,  -1.7954,   1
  3861,'MILLTOWN    ', 110.0000,1,     0.000,     0.000,   1,   2,1.05046,  -6.0648,   2
  3871,'MILLTOWN    ', 110.0000,1,     0.000,     0.000,   1,   2,1.06016,  -5.0663,   2
  3881,'MACROOM     ', 110.0000,1,     0.000,     0.000,   3,   1,1.05582,   0.5252,   1
  3901,'MONETEEN    ', 110.0000,1,     0.000,     0.000,   7,   1,1.04342,   1.5855,   1
  3934,'MNYPG1      ', 380.0000,1,     0.000,     6.000,   4,   1,1.07500,   8.0228,   1
  3941,'MONEYPOI    ', 110.0000,1,     0.000,     0.000,   4,   1,1.02418,  -1.1056,   1
  3942,'MONEYPOI    ', 220.0000,1,     0.000,     0.000,   7,   1,1.07459,   8.6356,   1
  3944,'MNYPG3      ', 380.0000,1,     0.000,     6.000,   4,   1,1.07500,   8.0228,   1
  3954,'MNYPG2      ', 380.0000,1,     0.000,     6.000,   7,   1,1.07500,  12.9005,   1
  3961,'MARINA      ', 110.0000,1,     0.000,     0.000,   3,   1,1.04166,  -0.8165,   1
  3981,'MUNGRET     ', 110.0000,1,     0.000,     0.000,   7,   3,1.04317,   1.5715,   5
  3991,'MUNGRET     ', 110.0000,1,     0.000,     0.000,   7,   3,1.04318,   1.5721,   5
  4001,'MULLINGA    ', 110.0000,1,     0.000,     0.000,   9,   1,1.02650,  -5.0872,   1
  4021,'MALLOW      ', 110.0000,1,     0.000,     0.000,   3,   1,1.02196,  -0.9104,   1
  4041,'MOY         ', 110.0000,1,     0.000,     0.000,   9,   1,1.06987,  -4.8123,   1
  4061,'MULLAGHA    ', 110.0000,1,     0.000,     0.000,  10,   1,1.05217,  -5.3917,   2
  4071,'MEENTYCA    ', 110.0000,1,     0.000,     0.000,   9,   1,1.04618,  -2.1485,   4
  4081,'MONREAD     ', 110.0000,1,     0.000,     0.000,   8,   1,1.03632,  -6.4716,   1
  4201,'NEWBRIDG    ', 110.0000,1,     0.000,     0.000,   8,   1,1.03346,  -6.0730,   1
  4211,'NORTH QU    ', 110.0000,1,     0.000,     0.000,   1,   1,1.05086,  -6.0386,   2
  4221,'NAVAN       ', 110.0000,1,     0.000,     0.000,  10,   1,1.02746,  -6.0801,   1
  4242,'NORTH WA    ', 220.0000,1,     0.000,     0.000,   2,   2,1.07672,  -0.6308,   1
  4261,'NENAGH      ', 110.0000,1,     0.000,     0.000,   7,   1,1.01455,  -0.4695,   2
  4281,'NANGOR      ', 110.0000,1,     0.000,     0.000,   1,   1,1.05793,  -4.3611,   2
  4341,'OLDCOURT    ', 110.0000,1,     0.000,     0.000,   3,   3,1.04987,  -0.0937,   5
  4351,'OLDCOURT    ', 110.0000,1,     0.000,     0.000,   3,   3,1.04989,  -0.0927,   5
  4361,'OUGHTRAG    ', 110.0000,1,     0.000,     0.000,   7,   1,1.04461,   2.3158,   2
  4371,'OUNAGH      ', 110.0000,1,     0.000,     0.000,   9,   1,1.07500,  -4.0498,   1
  4382,'OLDSTREE    ', 220.0000,1,     0.000,     0.000,   4,   1,1.07155,   7.3675,   1
  4384,'OLDSTREE    ', 380.0000,1,     0.000,     0.000,   4,   1,1.06570,   6.6356,   1
  4401,'POPPINTR    ', 110.0000,1,     0.000,     0.000,   1,   1,1.07140,  -3.0470,   2
  4441,'POLLAPHU    ', 110.0000,1,     0.000,     0.000,   6,   1,1.03724,  -7.3769,   1
  4461,'POOLBEG     ', 110.0000,1,     0.000,     0.000,   1,   1,1.05213,  -5.9053,   2
  4462,'POOLBEG     ', 220.0000,1,     0.000,     0.000,   2,   2,1.07667,  -0.6370,   1
  4471,'POOLBEG     ', 110.0000,1,     0.000,     0.000,   1,   1,1.05210,  -5.9088,   2
  4472,'POOLBEG     ', 220.0000,1,     0.000,     0.000,   2,   2,1.07477,  -2.5363,   1
  4481,'PORTLAOI    ', 110.0000,1,     0.000,     0.000,   8,   1,1.03900,  -5.5137,   1
  4491,'PELLETST    ', 110.0000,1,     0.000,     0.000,   1,   1,1.03948,  -4.9739,   1
  4501,'PLATIN      ', 110.0000,1,     0.000,     0.000,  10,   3,1.02070,  -6.3381,   1
  4511,'POTTERY     ', 110.0000,1,     0.000,     0.000,   1,   1,1.03659,  -6.8199,   2
  4522,'PROSPECT    ', 220.0000,1,     0.000,     0.000,   7,   1,1.07410,   7.5301,   1
  4621,'RYEBROOK    ', 110.0000,1,     0.000,     0.000,   2,   3,1.03975,  -4.8276,   1
  4651,'RINGSEND    ', 110.0000,1,     0.000,     0.000,   1,   2,1.05121,  -6.0189,   2
  4681,'RATHKEAL    ', 110.0000,1,     0.000,     0.000,   7,   1,1.04523,   2.4906,   1
  4701,'RICHMOND    ', 110.0000,1,     0.000,     0.000,   9,   1,1.06670,  -3.1407,   2
  4711,'RICHMOND    ', 110.0000,1,     0.000,     0.000,   9,   1,1.06656,  -3.1447,   2
  4721,'RAFFEEN     ', 110.0000,1,     0.000,     0.000,   3,   1,1.05422,   0.0106,   1
  4722,'RAFFEEN     ', 220.0000,1,     0.000,     0.000,   3,   1,1.07320,   2.6924,   1
  4731,'RAFFEENB    ', 110.0000,1,     0.000,     0.000,   3,   1,1.05697,  -0.2366,   1
  4741,'RINAWADE    ', 110.0000,1,     0.000,     0.000,   2,   3,1.04671,  -4.5059,   1
  4761,'RINGASKI    ', 110.0000,1,     0.000,     0.000,   3,   1,1.05687,  -0.2429,   2
  4781,'RATRUSSA    ', 110.0000,1,     0.000,     0.000,  10,   1,1.07500,  -5.6474,   1
  4931,'STAPOLIN    ', 110.0000,1,     0.000,     0.000,   1,   1,1.07214,  -3.0113,   1
  4941,'SHANNONB    ', 110.0000,1,     0.000,     0.000,   5,   1,1.07500,  -1.2171,   1
  4942,'SHANNONB    ', 220.0000,1,     0.000,     0.000,   5,   1,1.06607,   0.5817,   1
  4951,'SALTHILL    ', 110.0000,1,     0.000,     0.000,   9,   1,1.05824,  -1.0642,   1
  4961,'SHANKILL    ', 110.0000,1,     0.000,     0.000,  10,   1,1.06271,  -6.6980,   1
  4971,'SOUTHGRE    ', 110.0000,1,     0.000,     0.000,   8,   1,1.03253,  -6.1292,   1
  4981,'SLIGO       ', 110.0000,1,     0.000,     0.000,   9,   1,1.05947,  -3.3130,   1
  4991,'SORNE HI    ', 110.0000,1,     0.000,     0.000,   9,   1,1.04352,  -1.6646,   2
  5001,'SOMERSET    ', 110.0000,1,     0.000,     0.000,   9,   1,1.06432,  -1.4092,   2
  5022,'SHELLYBA    ', 220.0000,1,     0.000,     0.000,   2,   7,1.07675,  -0.6318,   1
  5031,'STEVENST    ', 110.0000,1,     0.000,     0.000,   1,   1,1.06238,  -3.7714,   2
  5041,'SRANANAG    ', 110.0000,1,     0.000,     0.000,   9,   1,1.06167,  -2.8004,   1
  5042,'SRANANAG    ', 220.0000,1,     0.000,     0.000,   9,   1,1.06040,  -1.6622,   1
  5051,'SEAL ROC    ', 110.0000,1,     0.000,     0.000,   7,   1,1.07561,   5.6064,   4
  5061,'STRATFOR    ', 110.0000,1,     0.000,     0.000,   6,   1,1.02790,  -7.4637,   2
  5071,'SEAL ROC    ', 110.0000,1,     0.000,     0.000,   7,   1,1.07561,   5.6064,   4
  5091,'SINGLAND    ', 110.0000,1,     0.000,     0.000,   7,   1,1.04368,   0.3773,   1
  5122,'SHELLYBA    ', 220.0000,1,     0.000,     0.000,   2,   2,1.07545,  -1.6436,   1
  5131,'TANEY       ', 110.0000,1,     0.000,     0.000,   1,   1,1.06037,  -5.0721,   2
  5141,'TARBERT     ', 110.0000,1,     0.000,     0.000,   7,   1,1.07335,   5.4474,   1
  5142,'TARBERT     ', 220.0000,1,     0.000,     0.000,   7,   1,1.07244,   6.9639,   1
  5144,'TARBERT     ', 380.0000,1,     0.000,     0.000,   7,   1,1.07525,   7.9970,   1
  5172,'TYNAGH      ', 220.0000,1,     0.000,     0.000,   4,   1,1.07500,   7.6897,   1
  5181,'TRABEG      ', 110.0000,1,     0.000,     0.000,   3,   1,1.04283,  -0.8129,   1
  5191,'TIEVEBRA    ', 110.0000,1,     0.000,     0.000,   9,   1,1.03014,  -3.1614,   1
  5202,'TURLOUGH    ', 220.0000,1,     0.000,     0.000,   2,   1,1.07296,  -1.4533,   1
  5221,'TULLABRA    ', 110.0000,1,     0.000,     0.000,   4,   1,1.02280,  -1.2617,   2
  5231,'TRINITY     ', 110.0000,1,     0.000,     0.000,   1,   1,1.04904,  -6.1506,   1
  5241,'TAWN_A      ', 110.0000,1,     0.000,     0.000,   9,   3,1.06991,  -4.8133,   2
  5251,'TAWN_B      ', 110.0000,1,     0.000,     0.000,   9,   3,1.06991,  -4.8133,   2
  5261,'TRIEN       ', 110.0000,1,     0.000,     0.000,   7,   1,1.07655,   4.8631,   1
  5271,'TOEM        ', 110.0000,1,     0.000,     0.000,   7,   1,1.02595,  -2.4740,   1
  5281,'TRALEE      ', 110.0000,1,     0.000,     0.000,   7,   1,1.06544,   3.7427,   1
  5301,'THURLES     ', 110.0000,1,     0.000,     0.000,   5,   1,1.01894,  -8.7812,   1
  5321,'THORNSBE    ', 110.0000,1,     0.000,     0.000,   8,   1,1.03623,  -5.3975,   2
  5341,'TONROE      ', 110.0000,1,     0.000,     0.000,   9,   1,1.05224,  -4.3662,   2
  5361,'TRILLICK    ', 110.0000,1,     0.000,     0.000,   9,   1,1.04158,  -1.7973,   2
  5381,'TIPPERAR    ', 110.0000,1,     0.000,     0.000,   5,   1,1.01791,  -4.7374,   1
  5441,'WATERFOR    ', 110.0000,1,     0.000,     0.000,   5,   1,1.01403,  -7.1909,   1
  5462,'WOODLAND    ', 220.0000,1,     0.000,     0.000,   2,   1,1.07487,  -0.2136,   1
  5464,'WOODLAND    ', 380.0000,1,     0.000,     0.000,   2,   1,1.03169,   4.2409,   1
  5481,'WHITEGAT    ', 110.0000,1,     0.000,     0.000,   3,   3,1.05348,   0.3146,   1
  5492,'WMD_220     ', 220.0000,1,     0.000,     0.000,   7,   1,1.05781,   3.6441,   1
  5494,'WMD_400     ', 380.0000,1,     0.000,     0.000,   7,   1,1.05766,   5.0078,   1
  5501,'WEXFORD     ', 110.0000,1,     0.000,     0.000,   6,   1,1.02877,  -7.5156,   1
  5521,'WOLFE TO    ', 110.0000,1,     0.000,     0.000,   1,   1,1.03834,  -5.0426,   2
 10204,'ARDNACRU    ',  38.0000,2,     0.000,     0.000,   4,   5,1.04938,   0.2948,   2
 10205,'ARDNACRU    ',  38.0000,1,     0.000,     0.000,   4,   1,1.03142, -10.8374,   2
 10261,'ARDNACRU    ', 110.0000,1,     0.000,     0.000,   4,   1,1.04213,  -0.0841,   1
 10271,'ARDNG1      ',  10.5000,2,     0.000,     0.000,   4,   1,1.01782,   3.9042,   3
 10272,'ARDNG2      ',  10.5000,2,     0.000,     0.000,   4,   1,1.00350,   4.5878,   3
 10273,'ARDNG3      ',  10.5000,2,     0.000,     0.000,   4,   1,0.99093,  -0.0841,   3
 10274,'ARDNG4      ',  10.5000,2,     0.000,     0.000,   4,   1,0.99189,  -0.0841,   3
 10401,'AGHADA      ',  10.0000,1,     0.000,     0.000,   3,   1,1.01504,   0.4977,   3
 10471,'AGH_G1      ',  20.0000,2,     0.000,     0.000,   3,   1,0.99930,   9.6137,   3
 10472,'AGH_G11     ',  10.5000,2,     0.000,     0.000,   3,   1,1.00000,   3.0775,   3
 10473,'AGH_G12     ',  10.5000,2,     0.000,     0.000,   3,   1,1.00000,   3.0775,   3
 10474,'AGH_G14     ',  10.5000,2,     0.000,     0.000,   3,   1,1.00000,   3.0775,   3
 10475,'AGH_PEAK    ',  10.5000,2,     0.000,     0.000,   3,   1,1.00121,   0.4977,   3
 10602,'ARIGNA      ',  20.0000,2,     0.000,     0.000,   9,   5,1.03457,  -2.4038,   2
 10619,'ARIGNA_T    ', 110.0000,1,     0.000,     0.000,   9,   1,1.06352,  -2.7988,   1
 10801,'AHANE       ',  11.0000,1,     0.000,     0.000,   7,   1,1.03948,  -0.1927,   2
 10901,'ADAMSTOW    ',  10.0000,1,     0.000,     0.000,   1,   1,1.04539,  -6.2704,   2
 11201,'ARKLOW      ',  10.0000,1,     0.000,     0.000,   6,   1,1.03651,  -6.9964,   1
 11204,'ARKLOW      ',  38.0000,2,     0.000,     0.000,   6,   5,1.02116,  -9.5566,   2
 11302,'ATHEA       ',  20.0000,1,     0.000,     0.000,   7,   5,1.00384,   7.3879,   4
 11371,'ATHEA       ',   1.0000,2,     0.000,     0.000,   7,   5,0.99390,   8.1786,   4
 11402,'LEABEG      ',  20.0000,2,     0.000,     0.000,   9,   5,1.01770,  -8.6777,   1
 11404,'ATHLONE     ',  38.0000,1,     0.000,     0.000,   9,   1,1.04356,  -8.9426,   2
 11461,'ATH_CAP     ', 110.0000,1,     0.000,     0.000,   9,   1,1.07689,  -2.7687,   1
 12001,'ARTANE      ',  10.0000,1,     0.000,     0.000,   1,   1,1.02992,  -6.7530,   2
 12202,'ATHY        ',  20.0000,1,     0.000,     0.000,   8,   1,1.03865, -17.2568,   2
 12302,'BALLYWAT    ',  20.0000,1,     0.000,     0.000,   6,   1,1.01155,  -3.9445,   4
 12371,'BALLYWAT    ',   0.4000,2,     0.000,     0.000,   6,   5,1.02515,  -3.0583,   4
 12402,'BALLYCUM    ',  20.0000,1,     0.000,     0.000,   7,   1,1.03815,  -1.9379,   2
 12502,'BOOLTIAG    ',  20.0000,1,     0.000,     0.000,   4,   1,1.01148,   0.0436,   4
 12571,'BOOLTIAG    ',   0.6900,2,     0.000,     0.000,   4,   5,1.02165,   0.9268,   4
 12702,'BALTRASN    ',  20.0000,1,     0.000,     0.000,  10,   1,1.02553, -11.5299,   2
 12804,'BALLYLIC    ',  38.0000,2,     0.000,     0.000,   3,   5,1.03300,  -0.0706,   2
 13001,'BALLYBEG    ',  10.0000,1,     0.000,     0.000,   6,   1,1.03113,  -8.4882,   2
 13204,'BLAKE       ',  38.0000,1,     0.000,     0.000,   8,   1,1.02305, -11.1388,   2