<!DOCTYPE HTML PUBLIC "-//W3C//DTD HTML 4.0 Transitional//EN">
<!-- saved from url=(0084)http://www.eirgrid.com/EirgridPortal/uploads/Publications/Summer%20Valley%202011.raw -->
<HTML><HEAD>
<META http-equiv=Content-Type content="text/html; charset=windows-1252">
<META content="MSHTML 6.00.2900.3492" name=GENERATOR></HEAD>
<BODY><PRE>0,   100.00          / PSS/E-30.3    WED, NOV 26 2008  11:50
/ CASE: 2011;  SUMMER 01/07/2011; FORECAST STATEMENT 2008 -
/ FS08_SEP08 - MEMO  GALLERY_T;  16:19:04  TUESDAY, SEPTEMBE
    10,'F_M_____    ',  38.0000,1,     0.000,     0.000,   1,   3,1.04873,  -4.8442,   2
    11,'FMN_LOOP    ',  38.0000,1,     0.000,     0.000,   1,   1,1.05857,  -2.8812,   2
    12,'BEDFORD     ',  38.0000,1,     0.000,     0.000,   1,   1,1.03501,  -3.1561,   2
    13,'M_R_____    ',  38.0000,1,     0.000,     0.000,   1,   1,1.02846,  -3.7832,   2
    14,'F_I_____    ',  38.0000,1,     0.000,     0.000,   1,   3,1.03947,  -1.4118,   2
    15,'I_M_____    ',  38.0000,1,     0.000,     0.000,   1,   1,1.03623,  -2.5205,   2
  1021,'ARDNACRU    ', 110.0000,1,     0.000,     0.000,   4,   1,1.00397,   8.5273,   1
  1041,'AGHADA      ', 110.0000,1,     0.000,     0.000,   3,   1,1.01587,  10.0006,   1
  1042,'AGHADA      ', 220.0000,1,     0.000,     0.000,   3,   1,1.01982,  14.1922,   1
  1052,'AGHADA2     ', 220.0000,1,     0.000,     0.000,   3,   1,1.02000,  11.3013,   1
  1061,'ARIGNA      ', 110.0000,1,     0.000,     0.000,   9,   1,1.00282,   7.8295,   2
  1062,'AGHADA3     ', 220.0000,1,     0.000,     0.000,   3,   1,1.02000,  11.3013,   1
  1071,'AGANNYGA    ', 110.0000,1,     0.000,     0.000,   4,   1,1.00666,   7.8019,   1
  1072,'AGHADA4     ', 220.0000,1,     0.000,     0.000,   3,   1,1.01987,  14.2276,   1
  1081,'AHANE       ', 110.0000,1,     0.000,     0.000,   7,   1,1.01004,   8.5631,   2
  1091,'ADAMSTOW    ', 110.0000,1,     0.000,     0.000,   1,   1,1.04379,   0.2460,   2
  1101,'ANNER       ', 110.0000,1,     0.000,     0.000,   5,   3,0.98684,   4.2295,   5
  1121,'ARKLOW      ', 110.0000,1,     0.000,     0.000,   6,   1,1.02536,   1.7386,   1
  1122,'ARKLOW      ', 220.0000,1,     0.000,     0.000,   6,   1,1.02495,   2.4110,   1
  1131,'ATHEA       ', 110.0000,1,     0.000,     0.000,   7,   5,1.00000,  12.2252,   4
  1141,'ATHLONE     ', 110.0000,1,     0.000,     0.000,   9,   1,0.99287,   5.3510,   1
  1161,'AUGHINIS    ', 110.0000,1,     0.000,     0.000,   7,   3,1.00000,   9.4935,   1
  1181,'ARVA        ', 110.0000,1,     0.000,     0.000,  10,   1,1.01050,   5.2165,   1
  1201,'ARTANE      ', 110.0000,1,     0.000,     0.000,   1,   1,1.06263,  -1.1413,   2
  1221,'ATHY        ', 110.0000,1,     0.000,     0.000,   8,   1,1.01459,   2.3853,   1
  1231,'BALLYWAT    ', 110.0000,1,     0.000,     0.000,   6,   1,1.01311,   3.8469,   4
  1241,'BALLYCUM    ', 110.0000,1,     0.000,     0.000,   7,   1,1.00334,   8.5193,   1
  1251,'BOOLTIAG    ', 110.0000,1,     0.000,     0.000,   4,   1,1.00000,   8.2803,   2
  1271,'BALTRASN    ', 110.0000,1,     0.000,     0.000,  10,   1,1.03042,   0.6620,   1
  1281,'BALLYLIC    ', 110.0000,1,     0.000,     0.000,   3,   1,0.99883,  10.5622,   2
  1301,'BALLYBEG    ', 110.0000,1,     0.000,     0.000,   6,   1,1.02757,   0.9708,   1
  1321,'BLAKE       ', 110.0000,1,     0.000,     0.000,   8,   1,1.00994,   1.2591,   2
  1331,'BALLYCAD    ', 110.0000,1,     0.000,     0.000,   6,   1,1.01108,   4.0903,   1
  1341,'BINBANE     ', 110.0000,1,     0.000,     0.000,   9,   1,1.00665,  13.0260,   2
  1351,'BARODA      ', 110.0000,1,     0.000,     0.000,   8,   1,1.00793,   1.4739,   1
  1361,'BALLYDIN    ', 110.0000,1,     0.000,     0.000,   5,   1,0.99226,   4.1274,   1
  1371,'BALLYMUR    ', 110.0000,1,     0.000,     0.000,   4,   1,1.00052,   7.8522,   2
  1381,'BARNAHEL    ', 110.0000,1,     0.000,     0.000,   3,   1,1.01301,   9.7833,   1
  1391,'BARNAHEL    ', 110.0000,1,     0.000,     0.000,   3,   1,1.00894,   9.6508,   1
  1401,'BELLACOR    ', 110.0000,1,     0.000,     0.000,   9,   1,1.00774,   6.9747,   1
  1421,'BLACKROC    ', 110.0000,1,     0.000,     0.000,   1,   2,1.03312,  -0.1619,   2
  1441,'BANDON      ', 110.0000,1,     0.000,     0.000,   3,   1,0.99979,   9.5046,   1
  1461,'BARRYMOR    ', 110.0000,1,     0.000,     0.000,   5,   1,1.00368,   8.0393,   2
  1471,'BALGRIFF    ', 110.0000,1,     0.000,     0.000,   1,   1,1.07430,  -0.4328,   2
  1472,'BALGRIFF    ', 220.0000,1,     0.000,     0.000,   1,   1,1.06445,   0.5286,   2
  1481,'BUTLERST    ', 110.0000,1,     0.000,     0.000,   5,   1,1.00197,   3.5147,   1
  1501,'BRINNY      ', 110.0000,1,     0.000,     0.000,   3,   1,0.99964,   9.4954,   5
  1511,'BRINNY      ', 110.0000,1,     0.000,     0.000,   3,   1,0.99965,   9.4958,   5
  1541,'BANOGE      ', 110.0000,1,     0.000,     0.000,   6,   1,1.01778,   2.4485,   1
  1571,'BUNBEG      ', 110.0000,1,     0.000,     0.000,   9,   1,1.00408,  12.9329,   2
  1581,'CABRA       ', 110.0000,1,     0.000,     0.000,   1,   2,1.06226,  -1.1675,   2
  1601,'CLASHAVO    ', 110.0000,1,     0.000,     0.000,   3,   1,1.01084,  11.0273,   1
  1602,'CLASHAVO    ', 220.0000,1,     0.000,     0.000,   3,   1,1.02168,  12.0479,   1
  1611,'CLONKEEN    ', 110.0000,1,     0.000,     0.000,   7,   1,1.00475,  12.1969,   1
  1621,'COOLROE     ', 110.0000,1,     0.000,     0.000,   3,   1,1.00744,   9.9109,   1
  1631,'CORDERRY    ', 110.0000,1,     0.000,     0.000,   9,   1,1.00131,   8.8887,   1
  1641,'CASHLA      ', 110.0000,1,     0.000,     0.000,   9,   1,1.01748,   5.7884,   1
  1642,'CASHLA      ', 220.0000,1,     0.000,     0.000,   9,   1,1.02648,   6.9255,   1
  1651,'CLAHANE     ', 110.0000,1,     0.000,     0.000,   7,   5,1.00272,  11.8220,   1
  1661,'CASTLEBA    ', 110.0000,1,     0.000,     0.000,   9,   1,1.01716,   5.4660,   1
  1681,'CARRIGAD    ', 110.0000,1,     0.000,     0.000,   3,   1,1.00988,  10.6524,   1
  1691,'CENTRAL     ', 110.0000,1,     0.000,     0.000,   1,   1,1.03336,  -0.0839,   1
  1701,'CATH_FAL    ', 110.0000,1,     0.000,     0.000,   9,   1,1.00395,  11.7782,   1
  1711,'CROMCAST    ', 110.0000,1,     0.000,     0.000,   1,   1,1.07443,  -0.4612,   1
  1721,'CAHIR       ', 110.0000,1,     0.000,     0.000,   5,   1,0.98951,   5.1396,   1
  1731,'CROMCAST    ', 110.0000,1,     0.000,     0.000,   1,   1,1.07443,  -0.4612,   1
  1741,'CARRICKM    ', 110.0000,1,     0.000,     0.000,   2,   2,1.03338,  -0.0785,   2
  1742,'CARRICKM    ', 220.0000,1,     0.000,     0.000,   2,   2,1.03597,   1.6444,   1
  1751,'CARRICKM    ', 110.0000,1,     0.000,     0.000,   2,   1,1.03597,   1.6444,   1
  1761,'CLIFF       ', 110.0000,1,     0.000,     0.000,   9,   1,1.00386,  11.8942,   1
  1781,'CASTLEFA    ', 110.0000,1,     0.000,     0.000,   7,   3,0.99961,   9.4732,   5
  1791,'CASTLEFA    ', 110.0000,1,     0.000,     0.000,   7,   3,0.99960,   9.4720,   5
  1801,'COOKSTOW    ', 110.0000,1,     0.000,     0.000,   1,   2,1.04694,  -0.1419,   2
  1811,'COOKSTOW    ', 110.0000,1,     0.000,     0.000,   1,   1,1.03106,  -0.4312,   1
  1821,'CLOON       ', 110.0000,1,     0.000,     0.000,   9,   1,1.01210,   5.3524,   1
  1841,'CRANE       ', 110.0000,1,     0.000,     0.000,   6,   1,1.01267,   3.5778,   1
  1851,'CHERRYWO    ', 110.0000,1,     0.000,     0.000,   2,   1,1.03284,  -0.1175,   1
  1861,'CARICKON    ', 110.0000,1,     0.000,     0.000,   9,   1,1.00635,   6.3252,   1
  1871,'COLLEGE     ', 110.0000,1,     0.000,     0.000,   2,   1,1.03734,   0.2177,   1
  1881,'CHARLEVI    ', 110.0000,1,     0.000,     0.000,   3,   1,1.00327,   9.2668,   1
  1901,'CARLOW      ', 110.0000,1,     0.000,     0.000,   6,   1,1.02614,   2.1667,   1
  1921,'COW CROS    ', 110.0000,1,     0.000,     0.000,   3,   1,1.01304,   9.7391,   1
  1931,'CUNGHILL    ', 110.0000,1,     0.000,     0.000,   9,   1,1.00126,   8.9079,   4
  1941,'CUSHALIN    ', 110.0000,1,     0.000,     0.000,   8,   1,1.00000,   3.6034,   1
  1951,'CARROWBE    ', 110.0000,1,     0.000,     0.000,   9,   1,1.01310,   5.1871,   1
  1961,'CASTLEVI    ', 110.0000,1,     0.000,     0.000,   3,   1,1.01106,   9.5391,   1
  1971,'COOMAGEA    ', 110.0000,1,     0.000,     0.000,   7,   1,1.00456,  12.5037,   4
  1981,'CORRACLA    ', 110.0000,1,     0.000,     0.000,   9,   1,1.00060,   7.2483,   1
  1991,'CASTLEDO    ', 110.0000,1,     0.000,     0.000,   6,   1,1.01212,   3.9066,   1
  2001,'CULLENAG    ', 110.0000,1,     0.000,     0.000,   5,   1,1.00490,   4.0776,   1
  2002,'CULLENAG    ', 220.0000,1,     0.000,     0.000,   5,   1,1.01298,   5.0409,   1
  2021,'CITY WES    ', 110.0000,1,     0.000,     0.000,   1,   1,1.04642,  -0.1700,   2
  2031,'CHARLESL    ', 110.0000,1,     0.000,     0.000,   6,   1,1.02909,   0.2928,   1
  2041,'CORDUFF     ', 110.0000,1,     0.000,     0.000,   2,   1,1.03785,   0.2804,   1
  2042,'CORDUFF     ', 220.0000,1,     0.000,     0.000,   2,   1,1.05894,   0.8325,   1
  2051,'CORDUFF     ', 110.0000,1,     0.000,     0.000,   2,   1,1.03785,   0.2804,   1
  2081,'DUNKETTL    ', 110.0000,4,     0.000,     0.000,   3,   1,1.00000,   0.0000,   5
  2101,'DUNDALK     ', 110.0000,1,     0.000,     0.000,  10,   1,1.04315,   3.5323,   2
  2121,'DRUMLINE    ', 110.0000,1,     0.000,     0.000,   4,   1,1.00072,   7.8648,   1
  2141,'DUNGARVA    ', 110.0000,1,     0.000,     0.000,   5,   1,1.00863,   5.9376,   1
  2161,'DOON        ', 110.0000,1,     0.000,     0.000,   5,   1,0.98746,   4.2671,   1
  2181,'DRYBRIDG    ', 110.0000,1,     0.000,     0.000,  10,   1,1.02377,   1.3797,   1
  2202,'DUNSTOWN    ', 220.0000,1,     0.000,     0.000,   2,   7,1.03621,   2.2711,   1
  2204,'DUNSTOWN    ', 380.0000,1,     0.000,     0.000,   2,   1,1.03847,   4.6909,   1
  2221,'DUNMANWA    ', 110.0000,1,     0.000,     0.000,   3,   1,1.00102,  10.1574,   1
  2231,'DERRYBRI    ', 110.0000,1,     0.000,     0.000,   4,   1,1.00855,   8.1420,   2
  2241,'DALLOW      ', 110.0000,1,     0.000,     0.000,   5,   1,0.99788,   5.4535,   2
  2251,'DARDISTO    ', 110.0000,1,     0.000,     0.000,   1,   1,1.07471,  -0.4581,   1
  2261,'DERRYIRO    ', 110.0000,1,     0.000,     0.000,   8,   1,1.01357,   1.2755,   1
  2281,'DALTON      ', 110.0000,1,     0.000,     0.000,   9,   1,1.01290,   5.3789,   1
  2301,'DUNFIRTH    ', 110.0000,1,     0.000,     0.000,   8,   1,1.02311,   0.7239,   2
  2321,'DRUMKEEN    ', 110.0000,1,     0.000,     0.000,   9,   1,1.01723,  14.3833,   1
  2361,'ENNIS       ', 110.0000,1,     0.000,     0.000,   4,   1,1.00170,   7.6341,   1
  2481,'FASS EAS    ', 110.0000,1,     0.000,     0.000,   2,   2,1.03139,  -0.1828,   2
  2491,'FASS WES    ', 110.0000,1,     0.000,     0.000,   2,   2,1.03148,  -0.1777,   2
  2521,'FLAGFORD    ', 110.0000,1,     0.000,     0.000,   9,   1,1.00687,   6.2857,   1
  2522,'FLAGFORD    ', 220.0000,1,     0.000,     0.000,   9,   7,1.02039,   6.6366,   1
  2531,'FINNSTOW    ', 110.0000,1,     0.000,     0.000,   1,   1,1.04379,   0.2479,   1
  2532,'FINNSTOW    ', 220.0000,1,     0.000,     0.000,   2,   1,1.04187,   1.3212,   1
  2541,'FRN ST A    ', 110.0000,1,     0.000,     0.000,   1,   2,1.04686,  -1.1317,   2
  2551,'FRN ST B    ', 110.0000,1,     0.000,     0.000,   1,   2,1.04741,  -0.1202,   2
  2561,'FIN_URBA    ', 110.0000,1,     0.000,     0.000,   2,   2,1.06311,  -1.0528,   1
  2562,'FINGLAS     ', 220.0000,1,     0.000,     0.000,   2,   7,1.06192,   0.6416,   1
  2571,'FIN_RURA    ', 110.0000,1,     0.000,     0.000,   2,   2,1.07415,  -0.4351,   1
  2581,'FIN_SUBU    ', 110.0000,1,     0.000,     0.000,   2,   1,1.03734,   0.1998,   1
  2591,'FIN_OPEN    ', 110.0000,1,     0.000,     0.000,   2,   1,1.06192,   0.6416,   2
  2671,'GARVAGH     ', 110.0000,1,     0.000,     0.000,   9,   1,1.00000,   9.2750,   4
  2681,'GILRA       ', 110.0000,1,     0.000,     0.000,   9,   3,1.00337,   6.0797,   2
  2701,'GLASMORE    ', 110.0000,1,     0.000,     0.000,   1,   2,1.07264,  -0.7478,   2
  2721,'GRIFFINR    ', 110.0000,1,     0.000,     0.000,   2,   2,1.02274,   0.9271,   2
  2731,'GLANLEE     ', 110.0000,1,     0.000,     0.000,   7,   5,1.00459,  12.5231,   4
  2741,'GREAT IS    ', 110.0000,1,     0.000,     0.000,   6,   1,1.00643,   3.4286,   1
  2742,'GREAT IS    ', 220.0000,1,     0.000,     0.000,   6,   7,1.01477,   4.0702,   1
  2761,'GRANGE      ', 110.0000,1,     0.000,     0.000,   1,   2,1.07385,  -0.4803,   2
  2771,'GARROW      ', 110.0000,1,     0.000,     0.000,   7,   1,1.00475,  12.3577,   7
  2781,'GALWAY      ', 110.0000,1,     0.000,     0.000,   9,   1,1.01234,   5.3567,   1
  2801,'GOLAGH      ', 110.0000,1,     0.000,     0.000,   9,   1,1.00979,  13.0131,   4
  2821,'GORTAWEE    ', 110.0000,1,     0.000,     0.000,   9,   1,0.99852,   6.4175,   1
  2841,'GORMAN      ', 110.0000,1,     0.000,     0.000,  10,   1,1.02167,   2.0940,   1
  2842,'GORMAN      ', 220.0000,1,     0.000,     0.000,  10,   1,1.03096,   3.2580,   1
  2852,'GLANAGOW    ', 220.0000,1,     0.000,     0.000,   3,   1,1.01993,  11.3608,   1
  2861,'GRANGE C    ', 110.0000,1,     0.000,     0.000,   1,   1,1.04370,   0.2371,   2
  2881,'GLENLARA    ', 110.0000,1,     0.000,     0.000,   3,   1,1.00139,   9.8478,   2
  2941,'HAROLDS     ', 110.0000,1,     0.000,     0.000,   1,   2,1.04698,  -1.1235,   2
  2951,'HEUSTON     ', 110.0000,1,     0.000,     0.000,   1,   1,1.04745,  -0.1128,   1
  2962,'HUNTSTOW    ', 220.0000,1,     0.000,     0.000,   2,   1,1.06194,   0.6415,   4
  2972,'HUNTSTOW    ', 220.0000,1,     0.000,     0.000,   2,   1,1.05906,   0.8318,   4
  2981,'HARNETTS    ', 110.0000,1,     0.000,     0.000,   3,   1,1.00954,  10.6431,   2
  3061,'INISCARR    ', 110.0000,1,     0.000,     0.000,   3,   1,1.00784,  10.0311,   1
  3081,'INCH_CIT    ', 110.0000,1,     0.000,     0.000,   1,   2,1.04742,  -0.0921,   2
  3082,'INCHICOR    ', 220.0000,1,     0.000,     0.000,   2,   2,1.04519,   0.9821,   1
  3091,'INCH_COU    ', 110.0000,1,     0.000,     0.000,   1,   1,1.04435,   0.3080,   2
  3101,'IKERRIN     ', 110.0000,1,     0.000,     0.000,   5,   1,0.98927,   4.3725,   2
  3122,'IRISHTOW    ', 220.0000,1,     0.000,     0.000,   2,   1,1.04000,   1.4799,   1
  3201,'KNOCKRAH    ', 110.0000,1,     0.000,     0.000,   3,   1,1.01196,   9.5744,   1
  3202,'KNOCKRAH    ', 220.0000,1,     0.000,     0.000,   3,   7,1.01821,  12.8907,   1
  3211,'KNOCKRAH    ', 110.0000,1,     0.000,     0.000,   3,   1,1.01821,  12.8907,   1
  3212,'KNOCKRAH    ', 220.0000,1,     0.000,     0.000,   3,   1,1.01689,   9.7352,   1
  3221,'KILBARRY    ', 110.0000,1,     0.000,     0.000,   3,   1,1.00831,   9.5029,   1
  3241,'KILTEEL     ', 110.0000,1,     0.000,     0.000,   8,   1,1.01145,   0.9543,   2
  3261,'KILKENNY    ', 110.0000,1,     0.000,     0.000,   6,   1,1.00779,   1.8266,   1
  3281,'KILLONAN    ', 110.0000,1,     0.000,     0.000,   7,   1,1.01007,   8.5703,   1
  3282,'KILLONAN    ', 220.0000,1,     0.000,     0.000,   7,   7,1.00995,   9.4805,   1
  3301,'KNOCKERA    ', 110.0000,1,     0.000,     0.000,   7,   1,1.00020,  11.4813,   1
  3321,'KNOCKUMB    ', 110.0000,1,     0.000,     0.000,  10,   3,1.01423,   1.8397,   5
  3341,'KELLIS      ', 110.0000,1,     0.000,     0.000,   6,   1,1.02867,   2.1610,   1
  3342,'KELLIS      ', 220.0000,1,     0.000,     0.000,   6,   1,1.01767,   2.8359,   1
  3361,'KILTOY      ', 110.0000,1,     0.000,     0.000,   9,   3,1.01732,  14.3014,   5
  3381,'KINNEGAD    ', 110.0000,1,     0.000,     0.000,   8,   1,1.01630,   1.0119,   1
  3401,'KILLOTER    ', 110.0000,1,     0.000,     0.000,   5,   1,1.00268,   3.4818,   1
  3421,'KILMORE     ', 110.0000,1,     0.000,     0.000,   1,   1,1.07441,  -0.4608,   2
  3431,'KILMAHUD    ', 110.0000,1,     0.000,     0.000,   1,   1,1.04341,   0.2201,   1
  3501,'LANESBOR    ', 110.0000,1,     0.000,     0.000,   9,   1,1.00000,   5.3608,   1
  3521,'LOUTH       ', 110.0000,1,     0.000,     0.000,  10,   1,1.04778,   3.7995,   1
  3522,'LOUTH       ', 220.0000,1,     0.000,     0.000,  10,   7,1.03001,   4.9620,   1
  3541,'LIMERICK    ', 110.0000,1,     0.000,     0.000,   7,   1,1.00477,   8.5103,   1
  3561,'LISDRUM     ', 110.0000,1,     0.000,     0.000,  10,   1,1.02655,   4.0708,   1
  3572,'LONGPOIN    ', 220.0000,1,     0.000,     0.000,   3,   1,1.02000,  14.2758,   1
  3581,'LETTERKE    ', 110.0000,1,     0.000,     0.000,   9,   1,1.01731,  14.3017,   1
  3601,'LIBERTY     ', 110.0000,1,     0.000,     0.000,   3,   1,1.00841,   9.4693,   2
  3611,'LIBERTY     ', 110.0000,1,     0.000,     0.000,   3,   1,1.00846,   9.4726,   2
  3621,'LISHEEN     ', 110.0000,1,     0.000,     0.000,   5,   1,0.98505,   3.5095,   5
  3641,'LODGEWOO    ', 110.0000,1,     0.000,     0.000,   6,   1,1.01236,   3.8176,   1
  3642,'LODGEWOO    ', 220.0000,1,     0.000,     0.000,   6,   1,1.01949,   3.3171,   1
  3751,'MISERY H    ', 110.0000,1,     0.000,     0.000,   1,   1,1.04715,  -1.0955,   2
  3761,'MACETOWN    ', 110.0000,1,     0.000,     0.000,   1,   2,1.03675,   0.1732,   1
  3781,'MCDERMOT    ', 110.0000,1,     0.000,     0.000,   1,   2,1.06233,  -1.1705,   2
  3801,'MIDLETON    ', 110.0000,1,     0.000,     0.000,   3,   1,1.01021,   9.5248,   1
  3821,'MEATH HI    ', 110.0000,1,     0.000,     0.000,  10,   1,1.03368,   3.0841,   2
  3841,'MAYNOOTH    ', 110.0000,1,     0.000,     0.000,   2,   2,1.02365,   0.9934,   1
  3842,'MAYNOOTH    ', 220.0000,1,     0.000,     0.000,   2,   7,1.03823,   1.6911,   1
  3851,'MAYNOOTH    ', 110.0000,1,     0.000,     0.000,   2,   2,1.03211,   0.6028,   1
  3852,'MAYNOOTH    ', 220.0000,1,     0.000,     0.000,   2,   2,1.03939,   1.7210,   1
  3861,'MILLTOWN    ', 110.0000,1,     0.000,     0.000,   1,   2,1.04720,  -1.0732,   2
  3871,'MILLTOWN    ', 110.0000,1,     0.000,     0.000,   1,   2,1.04672,  -0.2202,   2
  3881,'MACROOM     ', 110.0000,1,     0.000,     0.000,   3,   1,1.00984,  10.6706,   1
  3901,'MONETEEN    ', 110.0000,1,     0.000,     0.000,   7,   1,1.00185,   8.5563,   1
  3934,'MNYPG1      ', 380.0000,1,     0.000,     6.000,   4,   1,1.04000,   8.2052,   1
  3941,'MONEYPOI    ', 110.0000,1,     0.000,     0.000,   4,   1,0.99617,   8.6796,   1
  3942,'MONEYPOI    ', 220.0000,1,     0.000,     0.000,   7,   1,1.04292,  11.6547,   1
  3944,'MNYPG3      ', 380.0000,1,     0.000,     6.000,   4,   1,1.04000,   8.2052,   1
  3954,'MNYPG2      ', 380.0000,1,     0.000,     6.000,   7,   1,1.04000,  13.9997,   1
  3961,'MARINA      ', 110.0000,1,     0.000,     0.000,   3,   1,1.00849,   9.4764,   1
  3981,'MUNGRET     ', 110.0000,1,     0.000,     0.000,   7,   3,1.00170,   8.5473,   5
  3991,'MUNGRET     ', 110.0000,1,     0.000,     0.000,   7,   3,1.00170,   8.5477,   5
  4001,'MULLINGA    ', 110.0000,1,     0.000,     0.000,   9,   1,1.00740,   2.5113,   1
  4021,'MALLOW      ', 110.0000,1,     0.000,     0.000,   3,   1,1.00433,   9.3932,   1
  4041,'MOY         ', 110.0000,1,     0.000,     0.000,   9,   1,1.00054,   8.0655,   1
  4061,'MULLAGHA    ', 110.0000,1,     0.000,     0.000,  10,   1,1.04359,   3.5521,   2
  4071,'MEENTYCA    ', 110.0000,1,     0.000,     0.000,   9,   1,1.01849,  14.6905,   4
  4081,'MONREAD     ', 110.0000,1,     0.000,     0.000,   8,   1,1.00992,   1.1787,   1
  4201,'NEWBRIDG    ', 110.0000,1,     0.000,     0.000,   8,   1,1.00669,   1.6720,   1
  4211,'NORTH QU    ', 110.0000,1,     0.000,     0.000,   1,   1,1.04738,  -1.0579,   2
  4221,'NAVAN       ', 110.0000,1,     0.000,     0.000,  10,   1,1.01857,   2.0694,   1
  4242,'NORTH WA    ', 220.0000,1,     0.000,     0.000,   2,   2,1.06294,   0.6385,   1
  4261,'NENAGH      ', 110.0000,1,     0.000,     0.000,   7,   1,0.99966,   8.2370,   2
  4281,'NANGOR      ', 110.0000,1,     0.000,     0.000,   1,   1,1.04362,   0.2319,   2
  4341,'OLDCOURT    ', 110.0000,1,     0.000,     0.000,   3,   3,1.01302,   9.7380,   5
  4351,'OLDCOURT    ', 110.0000,1,     0.000,     0.000,   3,   3,1.01304,   9.7390,   5
  4361,'OUGHTRAG    ', 110.0000,1,     0.000,     0.000,   7,   1,0.99562,  10.8522,   2
  4371,'OUNAGH      ', 110.0000,1,     0.000,     0.000,   9,   1,1.00000,   8.8543,   1
  4382,'OLDSTREE    ', 220.0000,1,     0.000,     0.000,   4,   1,1.03873,   6.6100,   1
  4384,'OLDSTREE    ', 380.0000,1,     0.000,     0.000,   4,   1,1.04605,   6.4677,   1
  4401,'POPPINTR    ', 110.0000,1,     0.000,     0.000,   1,   1,1.07424,  -0.4543,   2
  4441,'POLLAPHU    ', 110.0000,1,     0.000,     0.000,   6,   1,1.02498,   1.9461,   1
  4461,'POOLBEG     ', 110.0000,1,     0.000,     0.000,   1,   1,1.04764,  -0.9875,   2
  4462,'POOLBEG     ', 220.0000,1,     0.000,     0.000,   2,   2,1.06266,   0.6442,   1
  4471,'POOLBEG     ', 110.0000,1,     0.000,     0.000,   1,   1,1.04764,  -0.9893,   2
  4472,'POOLBEG     ', 220.0000,1,     0.000,     0.000,   2,   2,1.04712,   0.7454,   1
  4481,'PORTLAOI    ', 110.0000,1,     0.000,     0.000,   8,   1,1.00705,   2.9368,   1
  4491,'PELLETST    ', 110.0000,1,     0.000,     0.000,   1,   1,1.06236,  -1.1383,   1
  4501,'PLATIN      ', 110.0000,1,     0.000,     0.000,  10,   3,1.02248,   1.2408,   1
  4511,'POTTERY     ', 110.0000,1,     0.000,     0.000,   1,   1,1.03333,  -0.1178,   2
  4522,'PROSPECT    ', 220.0000,1,     0.000,     0.000,   7,   1,1.03662,  11.0493,   1
  4621,'RYEBROOK    ', 110.0000,1,     0.000,     0.000,   2,   3,1.02561,  -0.1313,   1
  4651,'RINGSEND    ', 110.0000,1,     0.000,     0.000,   1,   2,1.04754,  -1.0462,   2
  4681,'RATHKEAL    ', 110.0000,1,     0.000,     0.000,   7,   1,1.00878,   9.4229,   1
  4701,'RICHMOND    ', 110.0000,1,     0.000,     0.000,   9,   1,0.99874,   5.2434,   2
  4711,'RICHMOND    ', 110.0000,1,     0.000,     0.000,   9,   1,0.99868,   5.2428,   2
  4721,'RAFFEEN     ', 110.0000,1,     0.000,     0.000,   3,   1,1.01352,   9.8135,   1
  4722,'RAFFEEN     ', 220.0000,1,     0.000,     0.000,   3,   1,1.01940,  11.0563,   1
  4731,'RAFFEENB    ', 110.0000,1,     0.000,     0.000,   3,   1,1.00987,   9.7135,   1
  4741,'RINAWADE    ', 110.0000,1,     0.000,     0.000,   2,   3,1.02932,   0.5682,   1
  4761,'RINGASKI    ', 110.0000,1,     0.000,     0.000,   3,   1,1.00982,   9.7107,   2
  4781,'RATRUSSA    ', 110.0000,1,     0.000,     0.000,  10,   1,1.01917,   5.6478,   1
  4931,'STAPOLIN    ', 110.0000,1,     0.000,     0.000,   1,   1,1.07449,  -0.4449,   1
  4941,'SHANNONB    ', 110.0000,1,     0.000,     0.000,   5,   1,1.00000,   6.0919,   1
  4942,'SHANNONB    ', 220.0000,1,     0.000,     0.000,   5,   1,1.01577,   5.9777,   1
  4951,'SALTHILL    ', 110.0000,1,     0.000,     0.000,   9,   1,1.01201,   5.3047,   1
  4961,'SHANKILL    ', 110.0000,1,     0.000,     0.000,  10,   1,1.01314,   5.0930,   1
  4971,'SOUTHGRE    ', 110.0000,1,     0.000,     0.000,   8,   1,1.00618,   1.8556,   1
  4981,'SLIGO       ', 110.0000,1,     0.000,     0.000,   9,   1,1.00090,   8.4224,   1
  4991,'SORNE HI    ', 110.0000,1,     0.000,     0.000,   9,   1,1.00440,  16.7992,   2
  5001,'SOMERSET    ', 110.0000,1,     0.000,     0.000,   9,   1,1.00098,   5.8598,   2
  5022,'SHELLYBA    ', 220.0000,1,     0.000,     0.000,   2,   7,1.06266,   0.6438,   1
  5031,'STEVENST    ', 110.0000,1,     0.000,     0.000,   1,   1,1.07403,  -0.7545,   2
  5041,'SRANANAG    ', 110.0000,1,     0.000,     0.000,   9,   1,1.00231,   8.7348,   1
  5042,'SRANANAG    ', 220.0000,1,     0.000,     0.000,   9,   1,1.01454,   7.5524,   1
  5051,'SEAL ROC    ', 110.0000,1,     0.000,     0.000,   7,   1,1.00012,   9.5071,   4
  5061,'STRATFOR    ', 110.0000,1,     0.000,     0.000,   6,   1,1.02445,   1.9308,   2
  5071,'SEAL ROC    ', 110.0000,1,     0.000,     0.000,   7,   1,1.00012,   9.5071,   4
  5091,'SINGLAND    ', 110.0000,1,     0.000,     0.000,   7,   1,1.00735,   8.5340,   1
  5122,'SHELLYBA    ', 220.0000,1,     0.000,     0.000,   2,   2,1.04001,   1.4798,   1
  5131,'TANEY       ', 110.0000,1,     0.000,     0.000,   1,   1,1.04693,  -0.2261,   2
  5141,'TARBERT     ', 110.0000,1,     0.000,     0.000,   7,   1,1.01603,  10.7312,   1
  5142,'TARBERT     ', 220.0000,1,     0.000,     0.000,   7,   1,1.03068,  10.9379,   1
  5172,'TYNAGH      ', 220.0000,1,     0.000,     0.000,   4,   1,1.03533,   6.7017,   1
  5181,'TRABEG      ', 110.0000,1,     0.000,     0.000,   3,   1,1.00866,   9.4846,   1
  5191,'TIEVEBRA    ', 110.0000,1,     0.000,     0.000,   9,   1,1.00882,  13.2701,   1
  5202,'TURLOUGH    ', 220.0000,1,     0.000,     0.000,   2,   1,1.04093,   1.5843,   1
  5221,'TULLABRA    ', 110.0000,1,     0.000,     0.000,   4,   1,0.99526,   8.5557,   2
  5231,'TRINITY     ', 110.0000,1,     0.000,     0.000,   1,   1,1.04700,  -1.1133,   1
  5241,'TAWN_A      ', 110.0000,1,     0.000,     0.000,   9,   3,1.00058,   8.0645,   2
  5251,'TAWN_B      ', 110.0000,1,     0.000,     0.000,   9,   3,1.00057,   8.0645,   2
  5261,'TRIEN       ', 110.0000,1,     0.000,     0.000,   7,   1,1.00319,  11.8115,   1
  5281,'TRALEE      ', 110.0000,1,     0.000,     0.000,   7,   1,1.00323,  11.4048,   1
  5301,'THURLES     ', 110.0000,1,     0.000,     0.000,   5,   1,0.98897,   3.7621,   1
  5321,'THORNSBE    ', 110.0000,1,     0.000,     0.000,   8,   1,1.00541,   1.9413,   2
  5341,'TONROE      ', 110.0000,1,     0.000,     0.000,   9,   1,1.00907,   5.7838,   2
  5361,'TRILLICK    ', 110.0000,1,     0.000,     0.000,   9,   1,1.00543,  16.5778,   2
  5381,'TIPPERAR    ', 110.0000,1,     0.000,     0.000,   5,   1,0.99348,   6.3542,   1
  5441,'WATERFOR    ', 110.0000,1,     0.000,     0.000,   5,   1,1.00316,   3.4661,   1
  5462,'WOODLAND    ', 220.0000,1,     0.000,     0.000,   2,   1,1.04918,   1.8543,   1
  5464,'WOODLAND    ', 380.0000,1,     0.000,     0.000,   2,   1,1.04500,   4.3153,   1
  5481,'WHITEGAT    ', 110.0000,1,     0.000,     0.000,   3,   3,1.01471,   9.9005,   1
  5501,'WEXFORD     ', 110.0000,1,     0.000,     0.000,   6,   1,1.00509,   3.4476,   1
  5521,'WOLFE TO    ', 110.0000,1,     0.000,     0.000,   1,   1,1.06224,  -1.1757,   2
 10204,'ARDNACRU    ',  38.0000,2,     0.000,     0.000,   4,   5,1.02325,   9.1424,   2
 10205,'ARDNACRU    ',  38.0000,1,     0.000,     0.000,   4,   1,1.04738,   4.5836,   2
 10261,'ARDNACRU    ', 110.0000,1,     0.000,     0.000,   4,   1,1.00397,   8.5273,   1
 10271,'ARDNG1      ',  10.5000,2,     0.000,     0.000,   4,   1,1.00394,  12.6265,   3
 10272,'ARDNG2      ',  10.5000,2,     0.000,     0.000,   4,   1,1.00015,  13.1646,   3
 10273,'ARDNG3      ',  10.5000,2,     0.000,     0.000,   4,   1,1.00397,   8.5273,   3
 10274,'ARDNG4      ',  10.5000,2,     0.000,     0.000,   4,   1,1.00397,   8.5273,   3
 10401,'AGHADA      ',  10.0000,1,     0.000,     0.000,   3,   1,1.01587,  10.0006,   3
 10471,'AGH_G1      ',  20.0000,2,     0.000,     0.000,   3,   1,0.98644,  14.1922,   3
 10472,'AGH_G11     ',  10.5000,2,     0.000,     0.000,   3,   1,0.98657,  11.3013,   3
 10473,'AGH_G12     ',  10.5000,2,     0.000,     0.000,   3,   1,0.98657,  11.3013,   3
 10474,'AGH_G14     ',  10.5000,2,     0.000,     0.000,   3,   1,0.98657,  11.3013,   3
 10475,'AGH_PEAK    ',  10.5000,2,     0.000,     0.000,   3,   1,1.01587,  10.0006,   3
 10602,'ARIGNA      ',  20.0000,2,     0.000,     0.000,   9,   5,1.02788,   9.4845,   2
 10619,'ARIGNA_T    ', 110.0000,1,     0.000,     0.000,   9,   1,1.00284,   7.8267,   1
 10801,'AHANE       ',  11.0000,1,     0.000,     0.000,   7,   1,1.03431,   8.3425,   2
 10901,'ADAMSTOW    ',  10.0000,1,     0.000,     0.000,   1,   1,1.03928,  -0.4553,   2
 11201,'ARKLOW      ',  10.0000,1,     0.000,     0.000,   6,   1,1.02402,   1.4909,   1
 11204,'ARKLOW      ',  38.0000,2,     0.000,     0.000,   6,   5,1.03466,   0.7829,   2
 11302,'ATHEA       ',  20.0000,1,     0.000,     0.000,   7,   5,0.99126,  13.5869,   4
 11371,'ATHEA       ',   1.0000,2,     0.000,     0.000,   7,   5,0.97638,  13.9714,   4
 11402,'LEABEG      ',  20.0000,2,     0.000,     0.000,   9,   5,1.01979,   3.5288,   1
 11404,'ATHLONE     ',  38.0000,1,     0.000,     0.000,   9,   1,1.03263,   3.2686,   2
 11461,'ATH_CAP     ', 110.0000,1,     0.000,     0.000,   9,   1,0.99287,   5.3510,   1
 12001,'ARTANE      ',  10.0000,1,     0.000,     0.000,   1,   1,1.05933,  -1.8068,   2
 12202,'ATHY        ',  20.0000,1,     0.000,     0.000,   8,   1,1.03518,  -1.6178,   2
 12302,'BALLYWAT    ',  20.0000,1,     0.000,     0.000,   6,   1,0.98769,   6.0013,   4
 12371,'BALLYWAT    ',   0.4000,2,     0.000,     0.000,   6,   5,0.97807,   7.1425,   4
 12402,'BALLYCUM    ',  20.0000,1,     0.000,     0.000,   7,   1,1.02981,   7.4151,   2
 12502,'BOOLTIAG    ',  20.0000,1,     0.000,     0.000,   4,   1,1.00169,   9.5748,   4
 12571,'BOOLTIAG    ',   0.6900,2,     0.000,     0.000,   4,   5,1.00271,  10.4836,   4
 12702,'BALTRASN    ',  20.0000,1,     0.000,     0.000,  10,   1,1.03390,  -1.5508,   2
 12804,'BALLYLIC    ',  38.0000,2,     0.000,     0.000,   3,   5,1.03245,  11.6937,   2
 13001,'BALLYBEG    ',  10.0000,1,     0.000,     0.000,   6,   1,1.02643,   0.8320,   2
 13204,'BLAKE       ',  38.0000,1,     0.000,     0.000,   8,   1,1.02920,  -0.6484,   2
 13219,'BLAKE T     ', 110.0000,1,     0.000,     0.000,   8,   1,1.01017,   1.2643,   1
 13302,'BALLYCAD    ',  20.0000,2,     0.000,     0.000,   6,   1,1.00000,   4.3917,   2
 13312,'BALLYCAD    ',  20.0000,2,     0.000,     0.000,   6,   1,0.97787,   5.1303,   1
 13404,'BINBANE     ',  38.0000,2,     0.000,     0.000,   9,   5,1.03991,  13.0295,   2
 13501,'BARODA      ',  10.0000,1,     0.000,     0.000,   8,   1,1.02290,   1.3931,   2
 13601,'BALLYDIN    ',  10.0000,1,     0.000,     0.000,   5,   1,1.03651,   3.4361,   2
 13604,'BALLYDIN    ',  38.0000,1,     0.000,     0.000,   5,   1,1.03886,   3.5354,   2
 13701,'BALLYMUR    ',  10.0000,1,     0.000,     0.000,   4,   1,1.02388,   6.5802,   2
 13711,'BALLYMUR    ', 110.0000,1,     0.000,     0.000,   4,   1,1.00052,   7.8522,   1