<!DOCTYPE HTML PUBLIC "-//W3C//DTD HTML 4.0 Transitional//EN">
<!-- saved from url=(0084)http://www.eirgrid.com/EirgridPortal/uploads/Publications/Summer%20Valley%202009.raw -->
<HTML><HEAD>
<META http-equiv=Content-Type content="text/html; charset=windows-1252">
<META content="MSHTML 6.00.2900.3492" name=GENERATOR></HEAD>
<BODY><PRE>0,   100.00          / PSS/E-30.3    WED, NOV 26 2008  10:05
/ CASE: 2009;  SUMMER 01/07/2009; FORECAST STATEMENT 2008 -
/ FS08_SEP08 - MEMO  GALLERY_T;  15:40:40  TUESDAY, SEPTEMBE
    10,'F_M_____    ',  38.0000,1,     0.000,     0.000,   1,   3,1.02730,  -1.2454,   2
    11,'FMN_LOOP    ',  38.0000,1,     0.000,     0.000,   1,   1,1.03683,   0.6955,   2
    12,'BEDFORD     ',  38.0000,1,     0.000,     0.000,   1,   1,1.03211,  -0.3403,   2
    13,'M_R_____    ',  38.0000,1,     0.000,     0.000,   1,   1,1.02133,  -1.5808,   2
    14,'F_I_____    ',  38.0000,1,     0.000,     0.000,   1,   3,1.03383,   1.3040,   2
    15,'I_M_____    ',  38.0000,1,     0.000,     0.000,   1,   1,1.03088,   0.2484,   2
  1021,'ARDNACRU    ', 110.0000,1,     0.000,     0.000,   4,   1,1.00449,  12.0705,   1
  1041,'AGHADA      ', 110.0000,1,     0.000,     0.000,   3,   1,1.00175,  10.1184,   1
  1042,'AGHADA      ', 220.0000,1,     0.000,     0.000,   3,   1,1.01943,  20.6841,   1
  1052,'AGHADA2     ', 220.0000,1,     0.000,     0.000,   3,   1,1.01554,  10.1120,   1
  1061,'ARIGNA      ', 110.0000,1,     0.000,     0.000,   9,   1,0.99805,   6.9896,   2
  1062,'AGHADA3     ', 220.0000,1,     0.000,     0.000,   3,   1,1.01554,  10.1120,   1
  1071,'AGANNYGA    ', 110.0000,1,     0.000,     0.000,   4,   1,1.00605,  10.4191,   1
  1072,'AGHADA4     ', 220.0000,1,     0.000,     0.000,   3,   1,1.01962,  20.7442,   1
  1081,'AHANE       ', 110.0000,1,     0.000,     0.000,   7,   1,1.00871,  12.3079,   2
  1101,'ANNER       ', 110.0000,1,     0.000,     0.000,   5,   3,0.99603,   5.5293,   5
  1121,'ARKLOW      ', 110.0000,1,     0.000,     0.000,   6,   1,1.02682,   3.3690,   1
  1122,'ARKLOW      ', 220.0000,1,     0.000,     0.000,   6,   1,1.02596,   4.1888,   1
  1131,'ATHEA       ', 110.0000,1,     0.000,     0.000,   7,   5,1.00000,  17.7676,   4
  1141,'ATHLONE     ', 110.0000,1,     0.000,     0.000,   9,   1,0.99347,   6.4778,   1
  1161,'AUGHINIS    ', 110.0000,1,     0.000,     0.000,   7,   3,1.00000,  17.3812,   1
  1181,'ARVA        ', 110.0000,1,     0.000,     0.000,  10,   1,1.00234,   3.3306,   1
  1201,'ARTANE      ', 110.0000,1,     0.000,     0.000,   1,   1,1.04076,   2.4161,   2
  1221,'ATHY        ', 110.0000,1,     0.000,     0.000,   8,   1,1.02185,   3.0220,   1
  1231,'BALLYWAT    ', 110.0000,1,     0.000,     0.000,   6,   1,1.01450,   4.2315,   4
  1251,'BOOLTIAG    ', 110.0000,1,     0.000,     0.000,   4,   1,1.00000,  11.8035,   2
  1271,'BALTRASN    ', 110.0000,1,     0.000,     0.000,  10,   1,1.01637,   1.8182,   1
  1281,'BALLYLIC    ', 110.0000,1,     0.000,     0.000,   3,   1,0.98938,  12.1591,   2
  1301,'BALLYBEG    ', 110.0000,1,     0.000,     0.000,   6,   1,1.02796,   2.9186,   1
  1321,'BLAKE       ', 110.0000,1,     0.000,     0.000,   8,   1,1.01283,   2.1820,   2
  1341,'BINBANE     ', 110.0000,1,     0.000,     0.000,   9,   1,0.99949,   9.9397,   2
  1351,'BARODA      ', 110.0000,1,     0.000,     0.000,   8,   1,1.01315,   2.0691,   1
  1361,'BALLYDIN    ', 110.0000,1,     0.000,     0.000,   5,   1,0.99792,   5.3022,   1
  1381,'BARNAHEL    ', 110.0000,1,     0.000,     0.000,   3,   1,0.99275,   9.8576,   1
  1401,'BELLACOR    ', 110.0000,1,     0.000,     0.000,   9,   1,1.00965,   7.0969,   1
  1421,'BLACKROC    ', 110.0000,1,     0.000,     0.000,   1,   2,1.03168,   2.3746,   2
  1441,'BANDON      ', 110.0000,1,     0.000,     0.000,   3,   1,0.98687,  10.4067,   1
  1461,'BARRYMOR    ', 110.0000,1,     0.000,     0.000,   5,   1,0.99888,   9.5350,   2
  1481,'BUTLERST    ', 110.0000,1,     0.000,     0.000,   5,   1,1.00151,   4.4487,   1
  1501,'BRINNY      ', 110.0000,1,     0.000,     0.000,   3,   1,0.98673,  10.3972,   5
  1511,'BRINNY      ', 110.0000,1,     0.000,     0.000,   3,   1,0.98673,  10.3977,   5
  1581,'CABRA       ', 110.0000,1,     0.000,     0.000,   1,   2,1.04038,   2.3898,   2
  1601,'CLASHAVO    ', 110.0000,1,     0.000,     0.000,   3,   1,1.00525,  13.7698,   1
  1602,'CLASHAVO    ', 220.0000,1,     0.000,     0.000,   3,   1,1.01553,  17.1259,   1
  1611,'CLONKEEN    ', 110.0000,1,     0.000,     0.000,   7,   1,0.99993,  15.9014,   1
  1621,'COOLROE     ', 110.0000,1,     0.000,     0.000,   3,   1,0.99738,  11.4231,   1
  1631,'CORDERRY    ', 110.0000,1,     0.000,     0.000,   9,   1,1.00000,   7.5978,   1
  1641,'CASHLA      ', 110.0000,1,     0.000,     0.000,   9,   1,1.00351,  10.4867,   1
  1642,'CASHLA      ', 220.0000,1,     0.000,     0.000,   9,   1,1.00338,  12.5906,   1
  1651,'CLAHANE     ', 110.0000,1,     0.000,     0.000,   7,   5,1.00000,  17.3042,   1
  1661,'CASTLEBA    ', 110.0000,1,     0.000,     0.000,   9,   1,1.01646,   7.0781,   1
  1681,'CARRIGAD    ', 110.0000,1,     0.000,     0.000,   3,   1,1.00324,  12.8105,   1
  1691,'CENTRAL     ', 110.0000,1,     0.000,     0.000,   1,   1,1.03189,   2.4495,   1
  1701,'CATH_FAL    ', 110.0000,1,     0.000,     0.000,   9,   1,1.00344,   9.2473,   1
  1711,'CROMCAST    ', 110.0000,1,     0.000,     0.000,   1,   1,1.05864,   2.6390,   1
  1721,'CAHIR       ', 110.0000,1,     0.000,     0.000,   5,   1,0.99525,   6.8017,   1
  1731,'CROMCAST    ', 110.0000,1,     0.000,     0.000,   1,   1,1.05864,   2.6390,   1
  1741,'CARRICKM    ', 110.0000,1,     0.000,     0.000,   2,   2,1.03190,   2.4547,   2
  1742,'CARRICKM    ', 220.0000,1,     0.000,     0.000,   2,   2,1.03525,   4.2067,   1
  1761,'CLIFF       ', 110.0000,1,     0.000,     0.000,   9,   1,1.00345,   9.2470,   1
  1781,'CASTLEFA    ', 110.0000,1,     0.000,     0.000,   7,   3,0.99961,  17.3608,   5
  1791,'CASTLEFA    ', 110.0000,1,     0.000,     0.000,   7,   3,0.99960,  17.3596,   5
  1801,'COOKSTOW    ', 110.0000,1,     0.000,     0.000,   1,   2,1.02532,   1.7149,   2
  1821,'CLOON       ', 110.0000,1,     0.000,     0.000,   9,   1,1.00505,   8.6434,   1
  1841,'CRANE       ', 110.0000,1,     0.000,     0.000,   6,   1,1.01405,   3.9633,   1
  1851,'CHERRYWO    ', 110.0000,1,     0.000,     0.000,   2,   1,1.03139,   2.4174,   1
  1861,'CARICKON    ', 110.0000,1,     0.000,     0.000,   9,   1,0.99699,   6.0211,   1
  1871,'COLLEGE     ', 110.0000,1,     0.000,     0.000,   2,   1,1.02346,   2.5012,   1
  1881,'CHARLEVI    ', 110.0000,1,     0.000,     0.000,   3,   1,0.99838,  11.9690,   1
  1901,'CARLOW      ', 110.0000,1,     0.000,     0.000,   6,   1,1.03221,   3.1120,   1
  1921,'COW CROS    ', 110.0000,1,     0.000,     0.000,   3,   1,0.99615,  10.0996,   1
  1931,'CUNGHILL    ', 110.0000,1,     0.000,     0.000,   9,   1,1.00315,   7.6032,   4
  1941,'CUSHALIN    ', 110.0000,1,     0.000,     0.000,   8,   1,1.01517,   2.3737,   1
  1961,'CASTLEVI    ', 110.0000,1,     0.000,     0.000,   3,   1,0.99935,  10.6117,   1
  1971,'COOMAGEA    ', 110.0000,1,     0.000,     0.000,   7,   1,1.00000,  16.2083,   4
  1981,'CORRACLA    ', 110.0000,1,     0.000,     0.000,   9,   1,1.00538,   4.8336,   1
  2001,'CULLENAG    ', 110.0000,1,     0.000,     0.000,   5,   1,1.00366,   5.0046,   1
  2002,'CULLENAG    ', 220.0000,1,     0.000,     0.000,   5,   1,1.01053,   5.7069,   1
  2021,'CITY WES    ', 110.0000,1,     0.000,     0.000,   1,   1,1.03915,   2.4197,   2
  2031,'CHARLESL    ', 110.0000,1,     0.000,     0.000,   6,   1,1.02861,   2.5361,   1
  2041,'CORDUFF     ', 110.0000,1,     0.000,     0.000,   2,   1,1.02397,   2.5648,   1
  2042,'CORDUFF     ', 220.0000,1,     0.000,     0.000,   2,   1,1.03715,   4.4101,   1
  2051,'CORDUFF     ', 110.0000,1,     0.000,     0.000,   2,   1,1.02397,   2.5648,   1
  2081,'DUNKETTL    ', 110.0000,4,     0.000,     0.000,   3,   1,1.00000,   0.0000,   5
  2101,'DUNDALK     ', 110.0000,1,     0.000,     0.000,  10,   1,1.01952,   0.9360,   2
  2121,'DRUMLINE    ', 110.0000,1,     0.000,     0.000,   4,   1,1.00020,  11.4164,   1
  2141,'DUNGARVA    ', 110.0000,1,     0.000,     0.000,   5,   1,0.99763,   6.9101,   1
  2161,'DOON        ', 110.0000,1,     0.000,     0.000,   5,   1,0.99663,   5.5663,   1
  2181,'DRYBRIDG    ', 110.0000,1,     0.000,     0.000,  10,   1,1.00953,   1.1713,   1
  2202,'DUNSTOWN    ', 220.0000,1,     0.000,     0.000,   2,   1,1.03153,   4.5121,   1
  2204,'DUNSTOWN    ', 380.0000,1,     0.000,     0.000,   2,   1,1.03243,   8.3685,   1
  2221,'DUNMANWA    ', 110.0000,1,     0.000,     0.000,   3,   1,0.99141,  11.7361,   1
  2231,'DERRYBRI    ', 110.0000,1,     0.000,     0.000,   4,   1,1.00793,  10.7598,   2
  2241,'DALLOW      ', 110.0000,1,     0.000,     0.000,   5,   1,0.99975,   6.7090,   2
  2251,'DARDISTO    ', 110.0000,1,     0.000,     0.000,   1,   1,1.05890,   2.6641,   1
  2261,'DERRYIRO    ', 110.0000,1,     0.000,     0.000,   8,   1,1.01944,   2.0254,   1
  2281,'DALTON      ', 110.0000,1,     0.000,     0.000,   9,   1,1.00541,   7.8033,   1
  2301,'DUNFIRTH    ', 110.0000,1,     0.000,     0.000,   8,   1,1.02262,   2.2161,   2
  2321,'DRUMKEEN    ', 110.0000,1,     0.000,     0.000,   9,   1,1.01752,  12.6503,   1
  2361,'ENNIS       ', 110.0000,1,     0.000,     0.000,   4,   1,1.00019,  11.1714,   1
  2481,'FASS EAS    ', 110.0000,1,     0.000,     0.000,   2,   2,1.03001,   2.3554,   2
  2491,'FASS WES    ', 110.0000,1,     0.000,     0.000,   2,   2,1.03010,   2.3603,   2
  2521,'FLAGFORD    ', 110.0000,1,     0.000,     0.000,   9,   1,0.99715,   6.0930,   1
  2522,'FLAGFORD    ', 220.0000,1,     0.000,     0.000,   9,   1,1.00049,   7.0605,   1
  2541,'FRN ST A    ', 110.0000,1,     0.000,     0.000,   1,   2,1.04336,   1.5987,   2
  2551,'FRN ST B    ', 110.0000,1,     0.000,     0.000,   1,   2,1.04131,   2.5344,   2
  2561,'FIN_URBA    ', 110.0000,1,     0.000,     0.000,   2,   2,1.04121,   2.5040,   1
  2562,'FINGLAS     ', 220.0000,1,     0.000,     0.000,   2,   2,1.04000,   4.1860,   1
  2571,'FIN_RURA    ', 110.0000,1,     0.000,     0.000,   2,   2,1.05822,   2.7088,   1
  2581,'FIN_SUBU    ', 110.0000,1,     0.000,     0.000,   2,   1,1.02347,   2.4840,   1
  2591,'FIN_OPEN    ', 110.0000,1,     0.000,     0.000,   2,   1,1.04000,   4.1860,   2
  2681,'GILRA       ', 110.0000,1,     0.000,     0.000,   9,   3,0.99361,   5.8831,   2
  2701,'GLASMORE    ', 110.0000,1,     0.000,     0.000,   1,   2,1.05684,   2.4016,   2
  2721,'GRIFFINR    ', 110.0000,1,     0.000,     0.000,   2,   2,1.02189,   2.2249,   2
  2731,'GLANLEE     ', 110.0000,1,     0.000,     0.000,   7,   5,1.00005,  16.2275,   4
  2741,'GREAT IS    ', 110.0000,1,     0.000,     0.000,   6,   1,1.00667,   4.3453,   1
  2742,'GREAT IS    ', 220.0000,1,     0.000,     0.000,   6,   1,1.01413,   5.0219,   1
  2761,'GRANGE      ', 110.0000,1,     0.000,     0.000,   1,   2,1.05828,   2.6048,   2
  2771,'GARROW      ', 110.0000,1,     0.000,     0.000,   7,   1,1.00000,  16.0621,   7
  2781,'GALWAY      ', 110.0000,1,     0.000,     0.000,   9,   1,0.99681,   9.8608,   1
  2801,'GOLAGH      ', 110.0000,1,     0.000,     0.000,   9,   1,1.00955,  10.8549,   4
  2821,'GORTAWEE    ', 110.0000,1,     0.000,     0.000,   9,   1,1.00412,   4.0686,   1
  2841,'GORMAN      ', 110.0000,1,     0.000,     0.000,  10,   1,1.00406,   1.2762,   1
  2842,'GORMAN      ', 220.0000,1,     0.000,     0.000,  10,   1,1.01350,   2.1475,   1
  2852,'GLANAGOW    ', 220.0000,1,     0.000,     0.000,   3,   1,1.01563,  10.1114,   1
  2861,'GRANGE C    ', 110.0000,1,     0.000,     0.000,   1,   1,1.03763,   2.5960,   2
  2881,'GLENLARA    ', 110.0000,1,     0.000,     0.000,   3,   1,0.99669,  12.5683,   2
  2941,'HAROLDS     ', 110.0000,1,     0.000,     0.000,   1,   2,1.04341,   1.6030,   2
  2962,'HUNTSTOW    ', 220.0000,1,     0.000,     0.000,   2,   1,1.04001,   4.1859,   4
  2972,'HUNTSTOW    ', 220.0000,1,     0.000,     0.000,   2,   1,1.03626,   4.6658,   4
  3061,'INISCARR    ', 110.0000,1,     0.000,     0.000,   3,   1,0.99818,  11.6145,   1
  3081,'INCH_CIT    ', 110.0000,1,     0.000,     0.000,   1,   2,1.04150,   2.5778,   2
  3082,'INCHICOR    ', 220.0000,1,     0.000,     0.000,   2,   2,1.04146,   3.5741,   1
  3091,'INCH_COU    ', 110.0000,1,     0.000,     0.000,   1,   1,1.03904,   2.7805,   2
  3101,'IKERRIN     ', 110.0000,1,     0.000,     0.000,   5,   1,0.98466,   6.1237,   2
  3122,'IRISHTOW    ', 220.0000,1,     0.000,     0.000,   2,   1,1.04000,   4.1635,   1
  3201,'KNOCKRAH    ', 110.0000,1,     0.000,     0.000,   3,   1,1.00267,  10.9815,   1
  3202,'KNOCKRAH    ', 220.0000,1,     0.000,     0.000,   3,   1,1.01348,  18.4527,   1
  3212,'KNOCKRAH    ', 220.0000,1,     0.000,     0.000,   3,   1,1.00361,   9.0872,   1
  3221,'KILBARRY    ', 110.0000,1,     0.000,     0.000,   3,   1,0.99612,  10.6377,   1
  3241,'KILTEEL     ', 110.0000,1,     0.000,     0.000,   8,   1,1.01382,   1.8823,   2
  3261,'KILKENNY    ', 110.0000,1,     0.000,     0.000,   6,   1,1.01187,   2.8567,   1
  3281,'KILLONAN    ', 110.0000,1,     0.000,     0.000,   7,   1,1.00874,  12.3148,   1
  3282,'KILLONAN    ', 220.0000,1,     0.000,     0.000,   7,   1,1.00517,  14.1916,   1
  3301,'KNOCKERA    ', 110.0000,1,     0.000,     0.000,   7,   1,0.99514,  15.8435,   1
  3321,'KNOCKUMB    ', 110.0000,1,     0.000,     0.000,  10,   3,0.99558,   0.9598,   5
  3341,'KELLIS      ', 110.0000,1,     0.000,     0.000,   6,   1,1.03421,   3.1907,   1
  3342,'KELLIS      ', 220.0000,1,     0.000,     0.000,   6,   1,1.01720,   4.2790,   1
  3361,'KILTOY      ', 110.0000,1,     0.000,     0.000,   9,   3,1.01788,  12.6922,   5
  3381,'KINNEGAD    ', 110.0000,1,     0.000,     0.000,   8,   1,1.02006,   2.0204,   1
  3401,'KILLOTER    ', 110.0000,1,     0.000,     0.000,   5,   1,1.00233,   4.4126,   1
  3421,'KILMORE     ', 110.0000,1,     0.000,     0.000,   1,   1,1.05863,   2.6394,   2
  3501,'LANESBOR    ', 110.0000,1,     0.000,     0.000,   9,   1,0.99628,   5.8886,   1
  3521,'LOUTH       ', 110.0000,1,     0.000,     0.000,  10,   1,1.02401,   1.1998,   1
  3522,'LOUTH       ', 220.0000,1,     0.000,     0.000,  10,   1,1.00302,   1.6152,   1
  3541,'LIMERICK    ', 110.0000,1,     0.000,     0.000,   7,   1,1.00408,  12.6661,   1
  3561,'LISDRUM     ', 110.0000,1,     0.000,     0.000,  10,   1,1.01001,   1.4149,   1
  3572,'LONGPOIN    ', 220.0000,1,     0.000,     0.000,   3,   1,1.02000,  20.8253,   1
  3581,'LETTERKE    ', 110.0000,1,     0.000,     0.000,   9,   1,1.01787,  12.6925,   1
  3601,'LIBERTY     ', 110.0000,1,     0.000,     0.000,   3,   1,0.99488,  10.3411,   2
  3611,'LIBERTY     ', 110.0000,1,     0.000,     0.000,   3,   1,0.99492,  10.3445,   2
  3621,'LISHEEN     ', 110.0000,1,     0.000,     0.000,   5,   1,0.97701,   5.3751,   5
  3751,'MISERY H    ', 110.0000,1,     0.000,     0.000,   1,   1,1.04360,   1.6322,   2
  3761,'MACETOWN    ', 110.0000,1,     0.000,     0.000,   1,   2,1.02291,   2.4587,   1
  3781,'MCDERMOT    ', 110.0000,1,     0.000,     0.000,   1,   2,1.04046,   2.3871,   2
  3801,'MIDLETON    ', 110.0000,1,     0.000,     0.000,   3,   1,0.99929,  10.5361,   1
  3821,'MEATH HI    ', 110.0000,1,     0.000,     0.000,  10,   1,1.01687,   1.0407,   2
  3841,'MAYNOOTH    ', 110.0000,1,     0.000,     0.000,   2,   2,1.02286,   2.2876,   1
  3842,'MAYNOOTH    ', 220.0000,1,     0.000,     0.000,   2,   2,1.03210,   3.2853,   1
  3851,'MAYNOOTH    ', 110.0000,1,     0.000,     0.000,   2,   2,1.02703,   2.6488,   1
  3852,'MAYNOOTH    ', 220.0000,1,     0.000,     0.000,   2,   2,1.03117,   4.2899,   1
  3861,'MILLTOWN    ', 110.0000,1,     0.000,     0.000,   1,   2,1.04337,   1.6389,   2
  3871,'MILLTOWN    ', 110.0000,1,     0.000,     0.000,   1,   2,1.04087,   2.4538,   2
  3881,'MACROOM     ', 110.0000,1,     0.000,     0.000,   3,   1,1.00347,  12.8763,   1
  3901,'MONETEEN    ', 110.0000,1,     0.000,     0.000,   7,   1,1.00142,  13.5276,   1
  3934,'MNYPG1      ', 380.0000,1,     0.000,     6.000,   4,   1,1.04000,  13.9337,   1
  3941,'MONEYPOI    ', 110.0000,1,     0.000,     0.000,   4,   1,0.99645,  12.2149,   1
  3942,'MONEYPOI    ', 220.0000,1,     0.000,     0.000,   7,   1,1.03871,  17.4930,   1
  3944,'MNYPG3      ', 380.0000,1,     0.000,     6.000,   4,   1,1.04000,  13.9337,   1
  3954,'MNYPG2      ', 380.0000,1,     0.000,     6.000,   7,   1,1.04000,  20.3188,   1
  3961,'MARINA      ', 110.0000,1,     0.000,     0.000,   3,   1,0.99495,  10.3482,   1
  3981,'MUNGRET     ', 110.0000,1,     0.000,     0.000,   7,   3,1.00127,  13.5186,   5
  3991,'MUNGRET     ', 110.0000,1,     0.000,     0.000,   7,   3,1.00127,  13.5190,   5
  4001,'MULLINGA    ', 110.0000,1,     0.000,     0.000,   9,   1,1.00098,   3.8133,   1
  4021,'MALLOW      ', 110.0000,1,     0.000,     0.000,   3,   1,0.99531,  11.4055,   1
  4041,'MOY         ', 110.0000,1,     0.000,     0.000,   9,   1,1.00421,   7.0443,   1
  4061,'MULLAGHA    ', 110.0000,1,     0.000,     0.000,  10,   1,1.01993,   0.9542,   2
  4071,'MEENTYCA    ', 110.0000,1,     0.000,     0.000,   9,   1,1.01878,  12.9573,   4
  4081,'MONREAD     ', 110.0000,1,     0.000,     0.000,   8,   1,1.01394,   1.9793,   1
  4201,'NEWBRIDG    ', 110.0000,1,     0.000,     0.000,   8,   1,1.01255,   2.1489,   1
  4211,'NORTH QU    ', 110.0000,1,     0.000,     0.000,   1,   1,1.04361,   1.6575,   2
  4221,'NAVAN       ', 110.0000,1,     0.000,     0.000,  10,   1,1.00002,   1.1977,   1
  4242,'NORTH WA    ', 220.0000,1,     0.000,     0.000,   2,   2,1.04179,   4.1311,   1
  4261,'NENAGH      ', 110.0000,1,     0.000,     0.000,   7,   1,0.99963,  11.7428,   2
  4281,'NANGOR      ', 110.0000,1,     0.000,     0.000,   1,   1,1.03755,   2.5906,   2
  4341,'OLDCOURT    ', 110.0000,1,     0.000,     0.000,   3,   3,0.99614,  10.0985,   5
  4351,'OLDCOURT    ', 110.0000,1,     0.000,     0.000,   3,   3,0.99615,  10.0995,   5
  4361,'OUGHTRAG    ', 110.0000,1,     0.000,     0.000,   7,   1,0.99020,  15.9345,   2
  4382,'OLDSTREE    ', 220.0000,1,     0.000,     0.000,   4,   1,1.00806,  14.5209,   1
  4384,'OLDSTREE    ', 380.0000,1,     0.000,     0.000,   4,   1,1.03027,  12.5795,   1
  4401,'POPPINTR    ', 110.0000,1,     0.000,     0.000,   1,   1,1.05837,   2.6714,   2
  4441,'POLLAPHU    ', 110.0000,1,     0.000,     0.000,   6,   1,1.03118,   2.9035,   1
  4461,'POOLBEG     ', 110.0000,1,     0.000,     0.000,   1,   1,1.04384,   1.7255,   2
  4462,'POOLBEG     ', 220.0000,1,     0.000,     0.000,   2,   2,1.04179,   4.1170,   1
  4471,'POOLBEG     ', 110.0000,1,     0.000,     0.000,   1,   1,1.04384,   1.7238,   2
  4472,'POOLBEG     ', 220.0000,1,     0.000,     0.000,   2,   2,1.04289,   3.3905,   1
  4481,'PORTLAOI    ', 110.0000,1,     0.000,     0.000,   8,   1,1.01518,   3.2202,   1
  4491,'PELLETST    ', 110.0000,1,     0.000,     0.000,   1,   1,1.04047,   2.4183,   1
  4501,'PLATIN      ', 110.0000,1,     0.000,     0.000,  10,   3,1.00870,   1.1960,   1
  4511,'POTTERY     ', 110.0000,1,     0.000,     0.000,   1,   1,1.03186,   2.4169,   2
  4522,'PROSPECT    ', 220.0000,1,     0.000,     0.000,   7,   1,1.03127,  16.7592,   1
  4621,'RYEBROOK    ', 110.0000,1,     0.000,     0.000,   2,   3,1.01752,   1.9868,   1
  4651,'RINGSEND    ', 110.0000,1,     0.000,     0.000,   1,   2,1.04376,   1.6690,   2
  4681,'RATHKEAL    ', 110.0000,1,     0.000,     0.000,   7,   1,1.00870,  14.4614,   1
  4701,'RICHMOND    ', 110.0000,1,     0.000,     0.000,   9,   1,0.99508,   5.7762,   2
  4711,'RICHMOND    ', 110.0000,1,     0.000,     0.000,   9,   1,0.99503,   5.7756,   2
  4721,'RAFFEEN     ', 110.0000,1,     0.000,     0.000,   3,   1,0.99346,   9.9029,   1
  4722,'RAFFEEN     ', 220.0000,1,     0.000,     0.000,   3,   1,1.00007,   9.4340,   1
  4741,'RINAWADE    ', 110.0000,1,     0.000,     0.000,   2,   3,1.02509,   2.4857,   1
  4761,'RINGASKI    ', 110.0000,1,     0.000,     0.000,   3,   1,0.99342,   9.9001,   2
  4781,'RATRUSSA    ', 110.0000,1,     0.000,     0.000,  10,   1,1.00828,   2.3113,   1
  4901,'SHELTON     ', 110.0000,1,     0.000,     0.000,   6,   3,1.02669,   3.3609,   5
  4911,'SHELTON     ', 110.0000,1,     0.000,     0.000,   6,   3,1.02682,   3.3688,   5
  4941,'SHANNONB    ', 110.0000,1,     0.000,     0.000,   5,   1,1.00136,   7.5970,   1
  4942,'SHANNONB    ', 220.0000,1,     0.000,     0.000,   5,   1,1.01017,   8.7707,   1
  4961,'SHANKILL    ', 110.0000,1,     0.000,     0.000,  10,   1,1.00331,   2.3592,   1
  4981,'SLIGO       ', 110.0000,1,     0.000,     0.000,   9,   1,0.99899,   7.4128,   1
  4991,'SORNE HI    ', 110.0000,1,     0.000,     0.000,   9,   1,1.00516,  15.2055,   2
  5001,'SOMERSET    ', 110.0000,1,     0.000,     0.000,   9,   1,0.99874,   8.1206,   2
  5022,'SHELLYBA    ', 220.0000,1,     0.000,     0.000,   2,   2,1.04165,   4.1265,   1
  5031,'STEVENST    ', 110.0000,1,     0.000,     0.000,   1,   1,1.05820,   2.3946,   2
  5041,'SRANANAG    ', 110.0000,1,     0.000,     0.000,   9,   1,1.00003,   7.7050,   1
  5051,'SEAL ROC    ', 110.0000,1,     0.000,     0.000,   7,   1,1.00031,  17.4274,   4
  5061,'STRATFOR    ', 110.0000,1,     0.000,     0.000,   6,   1,1.03067,   2.8897,   2
  5071,'SEAL ROC    ', 110.0000,1,     0.000,     0.000,   7,   1,1.00031,  17.4274,   4
  5091,'SINGLAND    ', 110.0000,1,     0.000,     0.000,   7,   1,1.00680,  12.1944,   1
  5122,'SHELLYBA    ', 220.0000,1,     0.000,     0.000,   2,   2,1.04001,   4.1634,   1
  5131,'TANEY       ', 110.0000,1,     0.000,     0.000,   1,   1,1.04108,   2.4480,   2
  5141,'TARBERT     ', 110.0000,1,     0.000,     0.000,   7,   1,1.01409,  16.4784,   1
  5142,'TARBERT     ', 220.0000,1,     0.000,     0.000,   7,   1,1.02595,  16.5332,   1
  5172,'TYNAGH      ', 220.0000,1,     0.000,     0.000,   4,   1,1.00000,  15.5296,   1
  5181,'TRABEG      ', 110.0000,1,     0.000,     0.000,   3,   1,0.99414,  10.2753,   1
  5202,'TURLOUGH    ', 220.0000,1,     0.000,     0.000,   2,   1,1.03583,   3.1458,   1
  5221,'TULLABRA    ', 110.0000,1,     0.000,     0.000,   4,   1,0.99559,  12.0928,   2
  5241,'TAWN_A      ', 110.0000,1,     0.000,     0.000,   9,   3,1.00425,   7.0433,   2
  5251,'TAWN_B      ', 110.0000,1,     0.000,     0.000,   9,   3,1.00425,   7.0433,   2
  5261,'TRIEN       ', 110.0000,1,     0.000,     0.000,   7,   1,1.00182,  17.3685,   1
  5281,'TRALEE      ', 110.0000,1,     0.000,     0.000,   7,   1,0.99710,  16.8137,   1
  5301,'THURLES     ', 110.0000,1,     0.000,     0.000,   5,   1,0.98097,   5.6319,   1
  5321,'THORNSBE    ', 110.0000,1,     0.000,     0.000,   8,   1,1.01522,   1.9560,   2
  5341,'TONROE      ', 110.0000,1,     0.000,     0.000,   9,   1,0.99057,   6.0220,   2
  5361,'TRILLICK    ', 110.0000,1,     0.000,     0.000,   9,   1,1.00619,  14.9843,   2
  5381,'TIPPERAR    ', 110.0000,1,     0.000,     0.000,   5,   1,0.99596,   8.8521,   1
  5441,'WATERFOR    ', 110.0000,1,     0.000,     0.000,   5,   1,1.00289,   4.3938,   1
  5462,'WOODLAND    ', 220.0000,1,     0.000,     0.000,   2,   1,1.03066,   4.7959,   1
  5464,'WOODLAND    ', 380.0000,1,     0.000,     0.000,   2,   1,1.02532,   8.9574,   1
  5481,'WHITEGAT    ', 110.0000,1,     0.000,     0.000,   3,   3,1.00063,  10.1542,   1
  5501,'WEXFORD     ', 110.0000,1,     0.000,     0.000,   6,   1,1.00638,   4.0588,   1
  5521,'WOLFE TO    ', 110.0000,1,     0.000,     0.000,   1,   1,1.04037,   2.3819,   2
 10204,'ARDNACRU    ',  38.0000,2,     0.000,     0.000,   4,   5,1.02909,  13.9172,   2
 10205,'ARDNACRU    ',  38.0000,1,     0.000,     0.000,   4,   1,1.02369,   8.1525,   2
 10261,'ARDNACRU    ', 110.0000,1,     0.000,     0.000,   4,   1,1.00449,  12.0705,   1
 10271,'ARDNG1      ',  10.5000,2,     0.000,     0.000,   4,   1,1.00449,  12.0705,   3
 10272,'ARDNG2      ',  10.5000,2,     0.000,     0.000,   4,   1,1.00449,  12.0705,   3
 10273,'ARDNG3      ',  10.5000,2,     0.000,     0.000,   4,   1,1.00449,  12.0705,   3
 10274,'ARDNG4      ',  10.5000,2,     0.000,     0.000,   4,   1,1.00449,  12.0705,   3
 10401,'AGHADA      ',  10.0000,1,     0.000,     0.000,   3,   1,1.00175,  10.1184,   3
 10471,'AGH_G1      ',  20.0000,2,     0.000,     0.000,   3,   1,1.00172,  20.6841,   3
 10472,'AGH_G11     ',  10.5000,2,     0.000,     0.000,   3,   1,0.99780,  10.1120,   3
 10473,'AGH_G12     ',  10.5000,2,     0.000,     0.000,   3,   1,0.99780,  10.1120,   3
 10474,'AGH_G14     ',  10.5000,2,     0.000,     0.000,   3,   1,0.99780,  10.1120,   3
 10475,'AGH_PEAK    ',  10.5000,2,     0.000,     0.000,   3,   1,1.00175,  10.1184,   3
 10602,'ARIGNA      ',  20.0000,2,     0.000,     0.000,   9,   5,1.02295,   8.6867,   2
 10619,'ARIGNA_T    ', 110.0000,1,     0.000,     0.000,   9,   1,0.99807,   6.9866,   1
 10801,'AHANE       ',  11.0000,1,     0.000,     0.000,   7,   1,1.03295,  12.0996,   2
 11204,'ARKLOW      ',  38.0000,2,     0.000,     0.000,   6,   5,1.03403,   2.1766,   2
 11302,'ATHEA       ',  20.0000,1,     0.000,     0.000,   7,   5,0.98201,  19.1806,   4
 11371,'ATHEA       ',   1.0000,2,     0.000,     0.000,   7,   5,0.97189,  19.5845,   4
 11404,'ATHLONE     ',  38.0000,1,     0.000,     0.000,   9,   1,1.03663,   4.3660,   2
 11461,'ATH_CAP     ', 110.0000,1,     0.000,     0.000,   9,   1,0.99347,   6.4778,   1
 12001,'ARTANE      ',  10.0000,1,     0.000,     0.000,   1,   1,1.03756,   1.7582,   2
 12202,'ATHY        ',  20.0000,1,     0.000,     0.000,   8,   1,1.02714,  -0.8397,   2
 12302,'BALLYWAT    ',  20.0000,1,     0.000,     0.000,   6,   1,0.98912,   6.3799,   4
 12371,'BALLYWAT    ',   0.4000,2,     0.000,     0.000,   6,   5,0.97952,   7.5178,   4
 12502,'BOOLTIAG    ',  20.0000,1,     0.000,     0.000,   4,   1,1.00633,  13.0842,   4
 12571,'BOOLTIAG    ',   0.6900,2,     0.000,     0.000,   4,   5,1.01060,  13.9816,   4
 12702,'BALTRASN    ',  20.0000,1,     0.000,     0.000,  10,   1,1.03714,  -0.2982,   2
 12804,'BALLYLIC    ',  38.0000,2,     0.000,     0.000,   3,   5,1.05095,  13.2967,   2
 13001,'BALLYBEG    ',  10.0000,1,     0.000,     0.000,   6,   1,1.02690,   2.7880,   2
 13204,'BLAKE       ',  38.0000,1,     0.000,     0.000,   8,   1,1.03355,   0.2361,   2
 13219,'BLAKE T     ', 110.0000,1,     0.000,     0.000,   8,   1,1.01305,   2.1874,   1
 13404,'BINBANE     ',  38.0000,2,     0.000,     0.000,   9,   5,1.05774,   9.6056,   2
 13501,'BARODA      ',  10.0000,1,     0.000,     0.000,   8,   1,1.02820,   1.9892,   2
 13601,'BALLYDIN    ',  10.0000,1,     0.000,     0.000,   5,   1,1.02567,   4.5963,   2
 13604,'BALLYDIN    ',  38.0000,1,     0.000,     0.000,   5,   1,1.04507,   4.7471,   2
 13802,'BARNAHEL    ',  20.0000,1,     0.000,     0.000,   3,   1,1.02676,   7.2927,   2
 13804,'BARNAHEL    ',  38.0000,1,     0.000,     0.000,   3,   1,1.02798,   8.7416,   2
 14002,'BELLACOR    ',  20.0000,2,     0.000,     0.000,   9,   5,1.04077,   7.6777,   2
 14004,'BELLACOR    ',  38.0000,1,     0.000,     0.000,   9,   1,1.00965,   7.0969,   1
 14061,'BELL_CAP    ', 110.0000,1,     0.000,     0.000,   9,   1,1.00965,   7.0969,   1
 14204,'BLACKROC    ',  38.0000,1,     0.000,     0.000,   1,   1,1.02959,   0.7172,   2
 14401,'BANDON      ',  10.0000,1,     0.000,     0.000,   3,   1,1.03405,  10.0063,   2
 14404,'BANDON      ',  38.0000,2,     0.000,     0.000,   3,   5,1.03344,   8.0186,   2
 14461,'BAN_CAP     ', 110.0000,1,     0.000,     0.000,   3,   1,0.98687,  10.4067,   1
 14604,'BARRYMOR    ',  38.0000,2,     0.000,     0.000,   5,   3,1.02876,   7.4963,   2
 14619,'BARRYM T    ', 110.0000,1,     0.000,     0.000,   5,   1,0.99897,   9.5395,   1
 14804,'BUTLERST    ',  38.0000,2,     0.000,     0.000,   5,   5,1.03346,   1.8220,   2
 15001,'BRINNY      ',  10.0000,1,     0.000,     0.000,   3,   1,1.02748,   9.2193,   5
 15801,'CABRA       ',  10.0000,1,     0.000,     0.000,   1,   1,1.03569,   1.6176,   2
 16202,'COOLROE     ',  20.0000,1,     0.000,     0.000,   3,   1,1.02403,  10.3147,   2
 16302,'CORDERRY    ',  20.0000,1,     0.000,     0.000,   9,   5,0.99498,  12.2683,   7
 16351,'CORDERRY    ',  20.0000,1,     0.000,     0.000,   9,   5,1.00490,  13.7534,   1
 16354,'CORDERRY    ',  20.0000,1,     0.000,     0.000,   9,   5,1.04334,  13.5745,   1
 16361,'CARANNE     ',  20.0000,1,     0.000,     0.000,   9,   5,1.00710,  13.9757,   1
 16362,'CORDERRY    ',  20.0000,1,     0.000,     0.000,   9,   5,1.00952,  13.4703,   1
 16364,'CORDERRY    ',  20.0000,1,     0.000,     0.000,   9,   5,1.04404,  13.5927,   1
 16365,'CORDERRY    ',  20.0000,1,     0.000,     0.000,   9,   5,1.04373,  13.5847,   1
 16366,'CORDERRY    ',  20.0000,1,     0.000,     0.000,   9,   5,1.00524,  13.8311,   1
 16367,'TULLYNAM    ',  20.0000,1,     0.000,     0.000,   9,   1,0.99415,  13.5333,   1
 16371,'CARANNE     ',   0.6900,2,     0.000,     0.000,   9,   5,1.01640,  14.9835,   1
 16372,'BLACK BA    ',   0.6900,2,     0.000,     0.000,   9,   5,1.00000,  14.5997,   1
 16373,'CORDERRY    ',   0.6900,2,     0.000,     0.000,   9,   5,1.01883,  14.4727,   1
 16374,'CORDERRY    ',   0.6900,2,     0.000,     0.000,   9,   5,1.05668,  14.4525,   1
 16375,'CORDERRY    ',   0.6900,2,     0.000,     0.000,   9,   5,1.05643,  14.4512,   1
 16376,'CORDERRY    ',   0.6900,2,     0.000,     0.000,   9,   5,1.00142,  14.8480,   1
 16377,'TULLYNAM    ',   0.6900,2,     0.000,     0.000,   9,   1,0.98322,  13.7547,   1
 16378,'CARANNE     ',   0.6900,2,     0.000,     0.000,   9,   5,0.99206,  15.0810,   1
 16411,'CASHLA      ', 110.0000,1,     0.000,     0.000,   9,   1,1.00351,  10.4867,   1
 16461,'CASH_CAP    ', 110.0000,1,     0.000,     0.000,   9,   1,1.00351,  10.4867,   1
 16502,'CLAHANE     ',  20.0000,1,     0.000,     0.000,   7,   5,0.99717,  18.7703,   1
 16571,'CLAHANE     ',   0.6900,2,     0.000,     0.000,   7,   5,0.99051,  18.6529,   1