<!DOCTYPE HTML PUBLIC "-//W3C//DTD HTML 4.0 Transitional//EN">
<!-- saved from url=(0082)http://www.eirgrid.com/EirgridPortal/uploads/Publications/Winter%20Peak%202014.raw -->
<HTML><HEAD>
<META http-equiv=Content-Type content="text/html; charset=windows-1252">
<META content="MSHTML 6.00.2900.3492" name=GENERATOR></HEAD>
<BODY><PRE>0,   100.00          / PSS/E-30.3    WED, NOV 26 2008  13:39
/ CASE: 2014/2015;  WINTER 01/12/2014; FORECAST STATEMENT 20
/ FS08_SEP08 - MEMO  GALLERY_T;  16:30:56  TUESDAY, SEPTEMBE
    10,'F_M_____    ',  38.0000,1,     0.000,     0.000,   1,   3,1.03348, -16.9982,   2
    11,'FMN_LOOP    ',  38.0000,1,     0.000,     0.000,   1,   1,1.03947, -20.0220,   2
    12,'BEDFORD     ',  38.0000,1,     0.000,     0.000,   1,   1,1.04697, -14.1320,   2
    13,'M_R_____    ',  38.0000,1,     0.000,     0.000,   1,   1,1.03700, -14.2975,   2
    14,'F_I_____    ',  38.0000,1,     0.000,     0.000,   1,   3,1.02304, -12.9881,   2
    15,'I_M_____    ',  38.0000,1,     0.000,     0.000,   1,   1,1.04369, -12.5243,   2
  1021,'ARDNACRU    ', 110.0000,1,     0.000,     0.000,   4,   1,1.02979,  -2.6990,   1
  1041,'AGHADA      ', 110.0000,1,     0.000,     0.000,   3,   1,1.05145,   0.3763,   1
  1042,'AGHADA      ', 220.0000,1,     0.000,     0.000,   3,   1,1.07500,  10.1748,   1
  1052,'AGHADA2     ', 220.0000,1,     0.000,     0.000,   3,   1,1.07500,   2.7712,   1
  1061,'ARIGNA      ', 110.0000,1,     0.000,     0.000,   9,   1,1.05877,  -8.1417,   2
  1062,'AGHADA3     ', 220.0000,1,     0.000,     0.000,   3,   1,1.07500,   2.7712,   1
  1071,'AGANNYGA    ', 110.0000,1,     0.000,     0.000,   4,   1,1.05539,  -4.5569,   1
  1072,'AGHADA4     ', 220.0000,1,     0.000,     0.000,   3,   1,1.07452,  11.6597,   1
  1081,'AHANE       ', 110.0000,1,     0.000,     0.000,   7,   1,1.03497,  -1.7085,   2
  1091,'ADAMSTOW    ', 110.0000,1,     0.000,     0.000,   1,   1,1.05951,  -7.3498,   2
  1101,'ANNER       ', 110.0000,1,     0.000,     0.000,   5,   3,1.00361, -10.3419,   5
  1121,'ARKLOW      ', 110.0000,1,     0.000,     0.000,   6,   1,1.02594,  -9.6512,   1
  1122,'ARKLOW      ', 220.0000,1,     0.000,     0.000,   6,   1,1.04448,  -6.7319,   1
  1131,'ATHEA       ', 110.0000,1,     0.000,     0.000,   7,   5,1.07500,   3.2432,   4
  1141,'ATHLONE     ', 110.0000,1,     0.000,     0.000,   9,   1,1.07534,  -7.4952,   1
  1161,'AUGHINIS    ', 110.0000,1,     0.000,     0.000,   7,   3,1.07500,   3.8958,   1
  1181,'ARVA        ', 110.0000,1,     0.000,     0.000,  10,   1,1.05303, -10.7511,   1
  1201,'ARTANE      ', 110.0000,1,     0.000,     0.000,   1,   1,1.02957, -10.0840,   2
  1221,'ATHY        ', 110.0000,1,     0.000,     0.000,   8,   1,1.02384,  -7.9509,   1
  1231,'BALLYWAT    ', 110.0000,1,     0.000,     0.000,   6,   1,1.03579,  -8.8722,   4
  1241,'BALLYCUM    ', 110.0000,1,     0.000,     0.000,   7,   1,1.03144,  -1.3547,   1
  1251,'BOOLTIAG    ', 110.0000,1,     0.000,     0.000,   4,   1,1.01620,  -4.6296,   2
  1271,'BALTRASN    ', 110.0000,1,     0.000,     0.000,  10,   1,1.04423,  -9.2956,   1
  1281,'BALLYLIC    ', 110.0000,1,     0.000,     0.000,   3,   1,1.02141,  -1.5261,   2
  1301,'BALLYBEG    ', 110.0000,1,     0.000,     0.000,   6,   1,1.01507, -11.2415,   1
  1321,'BLAKE       ', 110.0000,1,     0.000,     0.000,   8,   1,1.01718,  -9.7560,   2
  1331,'BALLYCAD    ', 110.0000,1,     0.000,     0.000,   6,   1,1.03802,  -7.9601,   1
  1341,'BINBANE     ', 110.0000,1,     0.000,     0.000,   9,   1,1.01919, -10.0207,   2
  1351,'BARODA      ', 110.0000,1,     0.000,     0.000,   8,   1,1.01889, -10.2249,   1
  1361,'BALLYDIN    ', 110.0000,1,     0.000,     0.000,   5,   1,1.00515,  -9.8335,   1
  1371,'BALLYMUR    ', 110.0000,1,     0.000,     0.000,   4,   1,1.01091,  -4.7164,   2
  1381,'BARNAHEL    ', 110.0000,1,     0.000,     0.000,   3,   1,1.04298,  -0.4266,   1
  1391,'BARNAHEL    ', 110.0000,1,     0.000,     0.000,   3,   1,1.04494,  -0.8848,   1
  1401,'BELLACOR    ', 110.0000,1,     0.000,     0.000,   9,   1,1.06386, -11.7756,   1
  1421,'BLACKROC    ', 110.0000,1,     0.000,     0.000,   1,   2,1.01339, -12.0386,   2
  1431,'BALLYRAG    ', 110.0000,1,     0.000,     0.000,   6,   1,1.01759,  -8.7698,   1
  1441,'BANDON      ', 110.0000,1,     0.000,     0.000,   3,   1,1.03008,  -2.1267,   1
  1461,'BARRYMOR    ', 110.0000,1,     0.000,     0.000,   5,   1,1.02820,  -2.9777,   2
  1471,'BALGRIFF    ', 110.0000,1,     0.000,     0.000,   1,   1,1.05978,  -7.6405,   2
  1472,'BALGRIFF    ', 220.0000,1,     0.000,     0.000,   1,   1,1.07452,  -4.5140,   2
  1481,'BUTLERST    ', 110.0000,1,     0.000,     0.000,   5,   1,1.00666,  -9.1359,   1
  1501,'BRINNY      ', 110.0000,1,     0.000,     0.000,   3,   1,1.02993,  -2.1354,   5
  1511,'BRINNY      ', 110.0000,1,     0.000,     0.000,   3,   1,1.02994,  -2.1349,   5
  1541,'BANOGE      ', 110.0000,1,     0.000,     0.000,   6,   1,1.02067,  -9.7300,   1
  1571,'BUNBEG      ', 110.0000,1,     0.000,     0.000,   9,   1,0.99200, -11.7728,   2
  1581,'CABRA       ', 110.0000,1,     0.000,     0.000,   1,   2,1.02801, -10.1840,   2
  1601,'CLASHAVO    ', 110.0000,1,     0.000,     0.000,   3,   1,1.04703,   0.3557,   1
  1602,'CLASHAVO    ', 220.0000,1,     0.000,     0.000,   3,   1,1.06009,   5.5655,   1
  1611,'CLONKEEN    ', 110.0000,1,     0.000,     0.000,   7,   1,1.05955,   0.8681,   1
  1621,'COOLROE     ', 110.0000,1,     0.000,     0.000,   3,   1,1.03526,  -0.7454,   1
  1631,'CORDERRY    ', 110.0000,1,     0.000,     0.000,   9,   1,1.06201,  -7.9400,   1
  1641,'CASHLA      ', 110.0000,1,     0.000,     0.000,   9,   1,1.06061,  -4.5361,   1
  1642,'CASHLA      ', 220.0000,1,     0.000,     0.000,   9,   1,1.06044,  -0.0936,   1
  1651,'CLAHANE     ', 110.0000,1,     0.000,     0.000,   7,   5,1.07253,   2.3638,   1
  1661,'CASTLEBA    ', 110.0000,1,     0.000,     0.000,   9,   1,1.05749, -11.2294,   1
  1681,'CARRIGAD    ', 110.0000,1,     0.000,     0.000,   3,   1,1.04233,  -0.2432,   1
  1691,'CENTRAL     ', 110.0000,1,     0.000,     0.000,   1,   1,1.01516, -11.8670,   1
  1701,'CATH_FAL    ', 110.0000,1,     0.000,     0.000,   9,   1,1.05000,  -9.2605,   1
  1711,'CROMCAST    ', 110.0000,1,     0.000,     0.000,   1,   1,1.05884,  -7.7152,   1
  1721,'CAHIR       ', 110.0000,1,     0.000,     0.000,   5,   1,1.01855,  -9.3753,   1
  1731,'CROMCAST    ', 110.0000,1,     0.000,     0.000,   1,   1,1.05884,  -7.7152,   1
  1741,'CARRICKM    ', 110.0000,1,     0.000,     0.000,   2,   2,1.01536, -11.8523,   2
  1742,'CARRICKM    ', 220.0000,1,     0.000,     0.000,   2,   2,1.06653,  -5.1867,   1
  1751,'CARRICKM    ', 110.0000,1,     0.000,     0.000,   2,   1,1.06653,  -5.1867,   1
  1761,'CLIFF       ', 110.0000,1,     0.000,     0.000,   9,   1,1.05296,  -9.1033,   1
  1781,'CASTLEFA    ', 110.0000,1,     0.000,     0.000,   7,   3,1.07464,   3.8782,   5
  1791,'CASTLEFA    ', 110.0000,1,     0.000,     0.000,   7,   3,1.07463,   3.8771,   5
  1801,'COOKSTOW    ', 110.0000,1,     0.000,     0.000,   1,   2,1.05023,  -8.0749,   2
  1811,'COOKSTOW    ', 110.0000,1,     0.000,     0.000,   1,   1,0.99889, -12.9669,   1
  1821,'CLOON       ', 110.0000,1,     0.000,     0.000,   9,   1,1.05521,  -7.3073,   1
  1831,'CAMUS       ', 110.0000,1,     0.000,     0.000,   9,   1,1.03843,  -6.1869,   2
  1841,'CRANE       ', 110.0000,1,     0.000,     0.000,   6,   1,1.02961,  -9.0130,   1
  1851,'CHERRYWO    ', 110.0000,1,     0.000,     0.000,   2,   1,1.01289, -11.9704,   1
  1861,'CARICKON    ', 110.0000,1,     0.000,     0.000,   9,   1,1.05862,  -8.4071,   1
  1871,'COLLEGE     ', 110.0000,1,     0.000,     0.000,   2,   1,1.07066,  -7.8640,   1
  1881,'CHARLEVI    ', 110.0000,1,     0.000,     0.000,   3,   1,0.99913,  -2.6839,   1
  1901,'CARLOW      ', 110.0000,1,     0.000,     0.000,   6,   1,1.02998,  -8.5103,   1
  1921,'COW CROS    ', 110.0000,1,     0.000,     0.000,   3,   1,1.04154,  -0.2703,   1
  1931,'CUNGHILL    ', 110.0000,1,     0.000,     0.000,   9,   1,1.06502,  -9.7343,   4
  1941,'CUSHALIN    ', 110.0000,1,     0.000,     0.000,   8,   1,1.05970,  -7.4219,   1
  1951,'CARROWBE    ', 110.0000,1,     0.000,     0.000,   9,   1,1.04245, -12.0488,   1
  1961,'CASTLEVI    ', 110.0000,1,     0.000,     0.000,   3,   1,1.04005,   0.1401,   1
  1971,'COOMAGEA    ', 110.0000,1,     0.000,     0.000,   7,   1,1.06197,   1.1159,   4
  1981,'CORRACLA    ', 110.0000,1,     0.000,     0.000,   9,   1,1.05048, -11.1540,   1
  1991,'CASTLEDO    ', 110.0000,1,     0.000,     0.000,   6,   1,1.03993,  -8.0634,   1
  2001,'CULLENAG    ', 110.0000,1,     0.000,     0.000,   5,   1,1.01897,  -8.2011,   1
  2002,'CULLENAG    ', 220.0000,1,     0.000,     0.000,   5,   1,1.03962,  -4.9093,   1
  2021,'CITY WES    ', 110.0000,1,     0.000,     0.000,   1,   1,1.04929,  -8.1220,   2
  2031,'CHARLESL    ', 110.0000,1,     0.000,     0.000,   6,   1,1.00955, -12.0176,   1
  2041,'CORDUFF     ', 110.0000,1,     0.000,     0.000,   2,   1,1.07152,  -7.7679,   1
  2042,'CORDUFF     ', 220.0000,1,     0.000,     0.000,   2,   1,1.07441,  -3.9464,   1
  2051,'CORDUFF     ', 110.0000,1,     0.000,     0.000,   2,   1,1.07152,  -7.7679,   1
  2081,'DUNKETTL    ', 110.0000,4,     0.000,     0.000,   3,   1,1.00000,   0.0000,   5
  2101,'DUNDALK     ', 110.0000,1,     0.000,     0.000,  10,   1,1.04200,  -8.6793,   2
  2121,'DRUMLINE    ', 110.0000,1,     0.000,     0.000,   4,   1,1.01233,  -4.6466,   1
  2141,'DUNGARVA    ', 110.0000,1,     0.000,     0.000,   5,   1,1.01832,  -5.8870,   1
  2161,'DOON        ', 110.0000,1,     0.000,     0.000,   5,   1,1.00421, -10.3055,   1
  2181,'DRYBRIDG    ', 110.0000,1,     0.000,     0.000,  10,   1,1.02134, -10.4042,   1
  2202,'DUNSTOWN    ', 220.0000,1,     0.000,     0.000,   2,   7,1.07298,  -4.2654,   1
  2204,'DUNSTOWN    ', 380.0000,1,     0.000,     0.000,   2,   1,1.03301,  -1.7469,   1
  2221,'DUNMANWA    ', 110.0000,1,     0.000,     0.000,   3,   1,1.03089,  -1.4455,   1
  2231,'DERRYBRI    ', 110.0000,1,     0.000,     0.000,   4,   1,1.05957,  -4.3063,   2
  2241,'DALLOW      ', 110.0000,1,     0.000,     0.000,   5,   1,1.05514,  -6.3633,   2
  2251,'DARDISTO    ', 110.0000,1,     0.000,     0.000,   1,   1,1.05923,  -7.7109,   1
  2261,'DERRYIRO    ', 110.0000,1,     0.000,     0.000,   8,   1,1.03416,  -8.9873,   1
  2281,'DALTON      ', 110.0000,1,     0.000,     0.000,   9,   1,1.05145,  -9.8896,   1
  2301,'DUNFIRTH    ', 110.0000,1,     0.000,     0.000,   8,   1,1.03976,  -8.6564,   2
  2321,'DRUMKEEN    ', 110.0000,1,     0.000,     0.000,   9,   1,1.02374, -10.1650,   1
  2361,'ENNIS       ', 110.0000,1,     0.000,     0.000,   4,   1,1.01742,  -4.9050,   1
  2481,'FASS EAS    ', 110.0000,1,     0.000,     0.000,   2,   2,1.00583, -12.3416,   2
  2491,'FASS WES    ', 110.0000,1,     0.000,     0.000,   2,   2,1.00629, -12.3178,   2
  2521,'FLAGFORD    ', 110.0000,1,     0.000,     0.000,   9,   1,1.06033,  -8.2431,   1
  2522,'FLAGFORD    ', 220.0000,1,     0.000,     0.000,   9,   7,1.05503,  -4.7903,   1
  2531,'FINNSTOW    ', 110.0000,1,     0.000,     0.000,   1,   1,1.05957,  -7.3452,   1
  2532,'FINNSTOW    ', 220.0000,1,     0.000,     0.000,   2,   1,1.06951,  -5.2146,   1
  2541,'FRN ST A    ', 110.0000,1,     0.000,     0.000,   1,   2,1.05613,  -9.3926,   2
  2551,'FRN ST B    ', 110.0000,1,     0.000,     0.000,   1,   2,1.05002,  -8.0675,   2
  2561,'FIN_URBA    ', 110.0000,1,     0.000,     0.000,   2,   2,1.03355,  -9.8162,   1
  2562,'FINGLAS     ', 220.0000,1,     0.000,     0.000,   2,   7,1.07500,  -4.1928,   1
  2571,'FIN_RURA    ', 110.0000,1,     0.000,     0.000,   2,   2,1.05896,  -7.6699,   1
  2581,'FIN_SUBU    ', 110.0000,1,     0.000,     0.000,   2,   1,1.07045,  -7.8966,   1
  2591,'FIN_OPEN    ', 110.0000,1,     0.000,     0.000,   2,   1,1.07500,  -4.1928,   2
  2671,'GARVAGH     ', 110.0000,1,     0.000,     0.000,   9,   1,1.06709,  -7.7529,   4
  2681,'GILRA       ', 110.0000,1,     0.000,     0.000,   9,   3,1.06155,  -8.5389,   2
  2701,'GLASMORE    ', 110.0000,1,     0.000,     0.000,   1,   2,1.03133,  -8.8192,   2
  2721,'GRIFFINR    ', 110.0000,1,     0.000,     0.000,   2,   2,1.04089,  -8.4584,   2
  2731,'GLANLEE     ', 110.0000,1,     0.000,     0.000,   7,   5,1.06209,   1.1322,   4
  2741,'GREAT IS    ', 110.0000,1,     0.000,     0.000,   6,   1,1.01439,  -8.9250,   1
  2742,'GREAT IS    ', 220.0000,1,     0.000,     0.000,   6,   7,1.04319,  -5.5054,   1
  2761,'GRANGE      ', 110.0000,1,     0.000,     0.000,   1,   2,1.05744,  -7.7589,   2
  2771,'GARROW      ', 110.0000,1,     0.000,     0.000,   7,   1,1.06270,   0.9348,   7
  2781,'GALWAY      ', 110.0000,1,     0.000,     0.000,   9,   1,1.04201,  -5.4286,   1
  2801,'GOLAGH      ', 110.0000,1,     0.000,     0.000,   9,   1,1.03684,  -9.6363,   4
  2821,'GORTAWEE    ', 110.0000,1,     0.000,     0.000,   9,   1,1.04970, -11.4966,   1
  2841,'GORMAN      ', 110.0000,1,     0.000,     0.000,  10,   1,1.02582,  -9.7872,   1
  2842,'GORMAN      ', 220.0000,1,     0.000,     0.000,  10,   1,1.04748,  -5.5824,   1
  2852,'GLANAGOW    ', 220.0000,1,     0.000,     0.000,   3,   1,1.07553,   2.8662,   1
  2861,'GRANGE C    ', 110.0000,1,     0.000,     0.000,   1,   1,1.05928,  -7.3629,   2
  2881,'GLENLARA    ', 110.0000,1,     0.000,     0.000,   3,   1,0.98743,  -2.5655,   2
  2941,'HAROLDS     ', 110.0000,1,     0.000,     0.000,   1,   2,1.05634,  -9.3712,   2
  2951,'HEUSTON     ', 110.0000,1,     0.000,     0.000,   1,   1,1.05048,  -8.0465,   1
  2962,'HUNTSTOW    ', 220.0000,1,     0.000,     0.000,   2,   1,1.07579,  -4.1131,   4
  2972,'HUNTSTOW    ', 220.0000,1,     0.000,     0.000,   2,   1,1.07632,  -3.6154,   4
  2981,'HARNETTS    ', 110.0000,1,     0.000,     0.000,   3,   1,1.04138,  -0.3088,   2
  3061,'INISCARR    ', 110.0000,1,     0.000,     0.000,   3,   1,1.03801,  -0.6220,   1
  3081,'INCH_CIT    ', 110.0000,1,     0.000,     0.000,   1,   2,1.05132,  -7.9941,   2
  3082,'INCHICOR    ', 220.0000,1,     0.000,     0.000,   2,   2,1.07319,  -5.2844,   1
  3091,'INCH_COU    ', 110.0000,1,     0.000,     0.000,   1,   1,1.06145,  -7.1859,   2
  3101,'IKERRIN     ', 110.0000,1,     0.000,     0.000,   5,   1,1.01601, -10.6701,   2
  3122,'IRISHTOW    ', 220.0000,1,     0.000,     0.000,   2,   1,1.07500,  -4.4997,   1
  3201,'KNOCKRAH    ', 110.0000,1,     0.000,     0.000,   3,   1,1.04419,   0.6069,   1
  3202,'KNOCKRAH    ', 220.0000,1,     0.000,     0.000,   3,   7,1.05919,   7.3685,   1
  3211,'KNOCKRAH    ', 110.0000,1,     0.000,     0.000,   3,   1,1.04419,   0.6069,   1
  3212,'KNOCKRAH    ', 220.0000,1,     0.000,     0.000,   3,   1,1.06093,   0.8272,   1
  3221,'KILBARRY    ', 110.0000,1,     0.000,     0.000,   3,   1,1.02581,  -1.0877,   1
  3241,'KILTEEL     ', 110.0000,1,     0.000,     0.000,   8,   1,1.02726, -10.3140,   2
  3261,'KILKENNY    ', 110.0000,1,     0.000,     0.000,   6,   1,0.99854, -10.4104,   1
  3281,'KILLONAN    ', 110.0000,1,     0.000,     0.000,   7,   1,1.03548,  -1.6618,   1
  3282,'KILLONAN    ', 220.0000,1,     0.000,     0.000,   7,   7,1.04354,   1.7247,   1
  3301,'KNOCKERA    ', 110.0000,1,     0.000,     0.000,   7,   1,1.04654,   0.0618,   1
  3321,'KNOCKUMB    ', 110.0000,1,     0.000,     0.000,  10,   3,1.01702, -10.3412,   5
  3341,'KELLIS      ', 110.0000,1,     0.000,     0.000,   6,   1,1.03580,  -8.4067,   1
  3342,'KELLIS      ', 220.0000,1,     0.000,     0.000,   6,   1,1.04063,  -5.8569,   1
  3361,'KILTOY      ', 110.0000,1,     0.000,     0.000,   9,   3,1.01597, -10.7574,   5
  3381,'KINNEGAD    ', 110.0000,1,     0.000,     0.000,   8,   1,1.03406,  -9.0648,   1
  3401,'KILLOTER    ', 110.0000,1,     0.000,     0.000,   5,   1,1.00853,  -9.1050,   1
  3421,'KILMORE     ', 110.0000,1,     0.000,     0.000,   1,   1,1.05883,  -7.7148,   2
  3431,'KILMAHUD    ', 110.0000,1,     0.000,     0.000,   1,   1,1.05900,  -7.3795,   1
  3441,'KILMURRY    ', 110.0000,1,     0.000,     0.000,   6,   1,1.00816,  -9.3453,   1
  3451,'KENTSTOW    ', 110.0000,1,     0.000,     0.000,  10,   1,1.02033, -10.2219,   1
  3501,'LANESBOR    ', 110.0000,1,     0.000,     0.000,   9,   1,1.06702,  -8.1285,   1
  3521,'LOUTH       ', 110.0000,1,     0.000,     0.000,  10,   1,1.06865,  -7.7135,   1
  3522,'LOUTH       ', 220.0000,1,     0.000,     0.000,  10,   7,1.04771,  -4.0805,   1
  3541,'LIMERICK    ', 110.0000,1,     0.000,     0.000,   7,   1,1.02872,  -1.7805,   1
  3551,'LAOIS       ', 110.0000,1,     0.000,     0.000,   8,   1,1.03614,  -6.7486,   1
  3554,'LAOIS       ', 380.0000,1,     0.000,     0.000,   8,   1,1.04224,  -0.8948,   1
  3561,'LISDRUM     ', 110.0000,1,     0.000,     0.000,  10,   1,1.06697, -10.9961,   1
  3572,'LONGPOIN    ', 220.0000,1,     0.000,     0.000,   3,   1,1.07500,  11.7352,   1
  3581,'LETTERKE    ', 110.0000,1,     0.000,     0.000,   9,   1,1.01595, -10.7571,   1
  3601,'LIBERTY     ', 110.0000,1,     0.000,     0.000,   3,   1,1.02626,  -1.2872,   2
  3611,'LIBERTY     ', 110.0000,1,     0.000,     0.000,   3,   1,1.02663,  -1.2788,   2
  3621,'LISHEEN     ', 110.0000,1,     0.000,     0.000,   5,   1,1.00705, -12.2479,   5
  3641,'LODGEWOO    ', 110.0000,1,     0.000,     0.000,   6,   1,1.03845,  -8.1127,   1
  3642,'LODGEWOO    ', 220.0000,1,     0.000,     0.000,   6,   1,1.04263,  -6.6177,   1
  3751,'MISERY H    ', 110.0000,1,     0.000,     0.000,   1,   1,1.05706,  -9.3057,   2
  3761,'MACETOWN    ', 110.0000,1,     0.000,     0.000,   1,   2,1.06939,  -7.9522,   1
  3772,'CAVAN       ', 220.0000,1,     0.000,     0.000,  10,   1,1.04824,  -2.7290,   1
  3774,'CAVAN       ', 380.0000,1,     0.000,     0.000,  10,   1,1.04025,   0.0510,   1
  3781,'MCDERMOT    ', 110.0000,1,     0.000,     0.000,   1,   2,1.02810, -10.1711,   2
  3801,'MIDLETON    ', 110.0000,1,     0.000,     0.000,   3,   1,1.03514,  -0.0159,   1
  3821,'MEATH HI    ', 110.0000,1,     0.000,     0.000,  10,   1,1.03789,  -9.0569,   2
  3841,'MAYNOOTH    ', 110.0000,1,     0.000,     0.000,   2,   2,1.04376,  -8.2979,   1
  3842,'MAYNOOTH    ', 220.0000,1,     0.000,     0.000,   2,   7,1.06492,  -5.2633,   1
  3851,'MAYNOOTH    ', 110.0000,1,     0.000,     0.000,   2,   2,1.05349,  -7.6009,   1
  3852,'MAYNOOTH    ', 220.0000,1,     0.000,     0.000,   2,   2,1.06923,  -4.7670,   1
  3861,'MILLTOWN    ', 110.0000,1,     0.000,     0.000,   1,   2,1.05795,  -9.2286,   2
  3871,'MILLTOWN    ', 110.0000,1,     0.000,     0.000,   1,   2,1.04672,  -8.2466,   2
  3881,'MACROOM     ', 110.0000,1,     0.000,     0.000,   3,   1,1.04249,  -0.2271,   1
  3901,'MONETEEN    ', 110.0000,1,     0.000,     0.000,   7,   1,1.03548,  -0.7345,   1
  3934,'MNYPG1      ', 380.0000,1,     0.000,     6.000,   4,   1,1.07500,   5.4786,   1
  3941,'MONEYPOI    ', 110.0000,1,     0.000,     0.000,   4,   1,1.01014,  -4.4632,   1
  3942,'MONEYPOI    ', 220.0000,1,     0.000,     0.000,   7,   1,1.07557,   6.6799,   1
  3944,'MNYPG3      ', 380.0000,1,     0.000,     6.000,   4,   1,1.07500,   5.4786,   1
  3954,'MNYPG2      ', 380.0000,1,     0.000,     6.000,   7,   1,1.07500,  10.9413,   1
  3961,'MARINA      ', 110.0000,1,     0.000,     0.000,   3,   1,1.02680,  -1.2663,   1
  3981,'MUNGRET     ', 110.0000,1,     0.000,     0.000,   7,   3,1.03522,  -0.7488,   5
  3991,'MUNGRET     ', 110.0000,1,     0.000,     0.000,   7,   3,1.03523,  -0.7481,   5
  4001,'MULLINGA    ', 110.0000,1,     0.000,     0.000,   9,   1,1.01973, -10.5805,   1
  4021,'MALLOW      ', 110.0000,1,     0.000,     0.000,   3,   1,1.00359,  -2.3903,   1
  4041,'MOY         ', 110.0000,1,     0.000,     0.000,   9,   1,1.07272, -12.0082,   1
  4061,'MULLAGHA    ', 110.0000,1,     0.000,     0.000,  10,   1,1.04699,  -8.5735,   2
  4071,'MEENTYCA    ', 110.0000,1,     0.000,     0.000,   9,   1,1.02587,  -9.8842,   4
  4081,'MONREAD     ', 110.0000,1,     0.000,     0.000,   8,   1,1.02104, -10.4450,   1
  4201,'NEWBRIDG    ', 110.0000,1,     0.000,     0.000,   8,   1,1.01980,  -9.9001,   1
  4211,'NORTH QU    ', 110.0000,1,     0.000,     0.000,   1,   1,1.05839,  -9.2027,   2
  4221,'NAVAN       ', 110.0000,1,     0.000,     0.000,  10,   1,1.02131, -10.1117,   1
  4242,'NORTH WA    ', 220.0000,1,     0.000,     0.000,   2,   2,1.07717,  -4.1354,   1
  4261,'NENAGH      ', 110.0000,1,     0.000,     0.000,   7,   1,0.99717,  -3.2138,   2
  4281,'NANGOR      ', 110.0000,1,     0.000,     0.000,   1,   1,1.05908,  -7.3744,   2
  4341,'OLDCOURT    ', 110.0000,1,     0.000,     0.000,   3,   3,1.04152,  -0.2714,   5
  4351,'OLDCOURT    ', 110.0000,1,     0.000,     0.000,   3,   3,1.04154,  -0.2704,   5
  4361,'OUGHTRAG    ', 110.0000,1,     0.000,     0.000,   7,   1,1.04046,   0.1509,   2
  4371,'OUNAGH      ', 110.0000,1,     0.000,     0.000,   9,   1,1.07500, -10.9448,   1
  4382,'OLDSTREE    ', 220.0000,1,     0.000,     0.000,   4,   1,1.07224,   4.4174,   1
  4384,'OLDSTREE    ', 380.0000,1,     0.000,     0.000,   4,   1,1.06688,   4.0731,   1
  4401,'POPPINTR    ', 110.0000,1,     0.000,     0.000,   1,   1,1.05858,  -7.7107,   2
  4441,'POLLAPHU    ', 110.0000,1,     0.000,     0.000,   6,   1,1.05395,  -7.3204,   1
  4461,'POOLBEG     ', 110.0000,1,     0.000,     0.000,   1,   1,1.05948,  -9.0562,   2
  4462,'POOLBEG     ', 220.0000,1,     0.000,     0.000,   2,   2,1.07733,  -4.1091,   1
  4471,'POOLBEG     ', 110.0000,1,     0.000,     0.000,   1,   1,1.05946,  -9.0600,   2
  4472,'POOLBEG     ', 220.0000,1,     0.000,     0.000,   2,   2,1.07500,  -5.3683,   1
  4481,'PORTLAOI    ', 110.0000,1,     0.000,     0.000,   8,   1,1.03093,  -7.7699,   1
  4491,'PELLETST    ', 110.0000,1,     0.000,     0.000,   1,   1,1.02932, -10.0880,   1
  4501,'PLATIN      ', 110.0000,1,     0.000,     0.000,  10,   3,1.02207, -10.4529,   1
  4511,'POTTERY     ', 110.0000,1,     0.000,     0.000,   1,   1,1.01447, -11.9398,   2
  4522,'PROSPECT    ', 220.0000,1,     0.000,     0.000,   7,   1,1.07534,   5.5757,   1
  4621,'RYEBROOK    ', 110.0000,1,     0.000,     0.000,   2,   3,1.04920,  -8.4016,   1
  4651,'RINGSEND    ', 110.0000,1,     0.000,     0.000,   1,   2,1.05879,  -9.1811,   2
  4681,'RATHKEAL    ', 110.0000,1,     0.000,     0.000,   7,   1,1.04270,   0.2522,   1
  4701,'RICHMOND    ', 110.0000,1,     0.000,     0.000,   9,   1,1.05849,  -8.5626,   2
  4711,'RICHMOND    ', 110.0000,1,     0.000,     0.000,   9,   1,1.05835,  -8.5675,   2
  4721,'RAFFEEN     ', 110.0000,1,     0.000,     0.000,   3,   1,1.04421,  -0.3548,   1
  4722,'RAFFEEN     ', 220.0000,1,     0.000,     0.000,   3,   1,1.07249,   2.3849,   1
  4731,'RAFFEENB    ', 110.0000,1,     0.000,     0.000,   3,   1,1.04622,  -0.7975,   1
  4741,'RINAWADE    ', 110.0000,1,     0.000,     0.000,   2,   3,1.04831,  -7.9543,   1
  4761,'RINGASKI    ', 110.0000,1,     0.000,     0.000,   3,   1,1.04584,  -0.8180,   2
  4781,'RATRUSSA    ', 110.0000,1,     0.000,     0.000,  10,   1,1.07270,  -9.7047,   1
  4931,'STAPOLIN    ', 110.0000,1,     0.000,     0.000,   1,   1,1.05965,  -7.6661,   1
  4941,'SHANNONB    ', 110.0000,1,     0.000,     0.000,   5,   1,1.07500,  -5.5206,   1
  4942,'SHANNONB    ', 220.0000,1,     0.000,     0.000,   5,   1,1.06379,  -2.7897,   1
  4951,'SALTHILL    ', 110.0000,1,     0.000,     0.000,   9,   1,1.03978,  -5.6057,   1
  4961,'SHANKILL    ', 110.0000,1,     0.000,     0.000,  10,   1,1.05739, -11.1237,   1
  4971,'SOUTHGRE    ', 110.0000,1,     0.000,     0.000,   8,   1,1.01940,  -9.6767,   1
  4981,'SLIGO       ', 110.0000,1,     0.000,     0.000,   9,   1,1.05211,  -9.2031,   1
  4991,'SORNE HI    ', 110.0000,1,     0.000,     0.000,   9,   1,1.00956, -10.2036,   2
  5001,'SOMERSET    ', 110.0000,1,     0.000,     0.000,   9,   1,1.05953,  -5.8167,   2
  5022,'SHELLYBA    ', 220.0000,1,     0.000,     0.000,   2,   7,1.07743,  -4.1034,   1
  5031,'STEVENST    ', 110.0000,1,     0.000,     0.000,   1,   1,1.03821,  -8.7037,   2
  5041,'SRANANAG    ', 110.0000,1,     0.000,     0.000,   9,   1,1.05691,  -8.4755,   1
  5042,'SRANANAG    ', 220.0000,1,     0.000,     0.000,   9,   1,1.05438,  -6.3797,   1
  5051,'SEAL ROC    ', 110.0000,1,     0.000,     0.000,   7,   1,1.07570,   3.9359,   4
  5061,'STRATFOR    ', 110.0000,1,     0.000,     0.000,   6,   1,1.02977,  -8.5074,   2
  5071,'SEAL ROC    ', 110.0000,1,     0.000,     0.000,   7,   1,1.07570,   3.9359,   4
  5091,'SINGLAND    ', 110.0000,1,     0.000,     0.000,   7,   1,1.03244,  -2.1554,   1
  5122,'SHELLYBA    ', 220.0000,1,     0.000,     0.000,   2,   2,1.07562,  -4.4266,   1
  5131,'TANEY       ', 110.0000,1,     0.000,     0.000,   1,   1,1.04638,  -8.2836,   2
  5141,'TARBERT     ', 110.0000,1,     0.000,     0.000,   7,   1,1.07386,   3.4878,   1
  5142,'TARBERT     ', 220.0000,1,     0.000,     0.000,   7,   1,1.07500,   5.1560,   1
  5144,'TARBERT     ', 380.0000,1,     0.000,     0.000,   7,   1,1.07535,   5.4684,   1
  5172,'TYNAGH      ', 220.0000,1,     0.000,     0.000,   4,   1,1.07500,   4.5616,   1
  5181,'TRABEG      ', 110.0000,1,     0.000,     0.000,   3,   1,1.02782,  -1.2906,   1
  5191,'TIEVEBRA    ', 110.0000,1,     0.000,     0.000,   9,   1,1.01084, -10.7175,   1
  5202,'TURLOUGH    ', 220.0000,1,     0.000,     0.000,   2,   1,1.07429,  -3.6195,   1
  5221,'TULLABRA    ', 110.0000,1,     0.000,     0.000,   4,   1,1.00890,  -4.6167,   2
  5231,'TRINITY     ', 110.0000,1,     0.000,     0.000,   1,   1,1.05647,  -9.3505,   1
  5241,'TAWN_A      ', 110.0000,1,     0.000,     0.000,   9,   3,1.07276, -12.0092,   2
  5251,'TAWN_B      ', 110.0000,1,     0.000,     0.000,   9,   3,1.07276, -12.0092,   2
  5261,'TRIEN       ', 110.0000,1,     0.000,     0.000,   7,   1,1.07622,   2.7934,   1
  5271,'TOEM        ', 110.0000,1,     0.000,     0.000,   7,   1,1.01857,  -4.8558,   1
  5281,'TRALEE      ', 110.0000,1,     0.000,     0.000,   7,   1,1.06112,   1.5352,   1
  5301,'THURLES     ', 110.0000,1,     0.000,     0.000,   5,   1,1.01227, -11.9205,   1
  5321,'THORNSBE    ', 110.0000,1,     0.000,     0.000,   8,   1,1.02723,  -9.1452,   2
  5341,'TONROE      ', 110.0000,1,     0.000,     0.000,   9,   1,1.05075,  -9.8212,   2
  5361,'TRILLICK    ', 110.0000,1,     0.000,     0.000,   9,   1,1.00755, -10.3454,   2
  5381,'TIPPERAR    ', 110.0000,1,     0.000,     0.000,   5,   1,1.01204,  -7.0740,   1
  5441,'WATERFOR    ', 110.0000,1,     0.000,     0.000,   5,   1,1.01002,  -9.0651,   1
  5462,'WOODLAND    ', 220.0000,1,     0.000,     0.000,   2,   1,1.07614,  -3.2936,   1
  5464,'WOODLAND    ', 380.0000,1,     0.000,     0.000,   2,   1,1.03499,   2.0761,   1
  5481,'WHITEGAT    ', 110.0000,1,     0.000,     0.000,   3,   3,1.04790,   0.2205,   1
  5492,'WMD_220     ', 220.0000,1,     0.000,     0.000,   7,   1,1.05529,   0.8823,   1
  5494,'WMD_400     ', 380.0000,1,     0.000,     0.000,   7,   1,1.05928,   1.9576,   1
  5501,'WEXFORD     ', 110.0000,1,     0.000,     0.000,   6,   1,1.00677, -10.2830,   1
  5521,'WOLFE TO    ', 110.0000,1,     0.000,     0.000,   1,   1,1.02771, -10.1940,   2
 10204,'ARDNACRU    ',  38.0000,2,     0.000,     0.000,   4,   5,1.04119,  -4.7981,   2
 10205,'ARDNACRU    ',  38.0000,1,     0.000,     0.000,   4,   1,1.05807, -16.1878,   2
 10261,'ARDNACRU    ', 110.0000,1,     0.000,     0.000,   4,   1,1.02979,  -2.6990,   1
 10271,'ARDNG1      ',  10.5000,2,     0.000,     0.000,   4,   1,1.00680,   1.3815,   3
 10272,'ARDNG2      ',  10.5000,2,     0.000,     0.000,   4,   1,1.01198,   2.1121,   3
 10273,'ARDNG3      ',  10.5000,2,     0.000,     0.000,   4,   1,1.00536,   0.7983,   3
 10274,'ARDNG4      ',  10.5000,2,     0.000,     0.000,   4,   1,1.00669,   1.8071,   3
 10401,'AGHADA      ',  10.0000,1,     0.000,     0.000,   3,   1,1.01004,   0.3763,   3
 10471,'AGH_G1      ',  20.0000,2,     0.000,     0.000,   3,   1,1.01612,  17.1051,   3
 10472,'AGH_G11     ',  10.5000,2,     0.000,     0.000,   3,   1,1.00000,   2.7712,   3
 10473,'AGH_G12     ',  10.5000,2,     0.000,     0.000,   3,   1,1.00000,   2.7712,   3
 10474,'AGH_G14     ',  10.5000,2,     0.000,     0.000,   3,   1,1.00000,   2.7712,   3
 10475,'AGH_PEAK    ',  10.5000,2,     0.000,     0.000,   3,   1,0.99628,   0.3763,   3
 10602,'ARIGNA      ',  20.0000,2,     0.000,     0.000,   9,   5,1.05258,  -8.5468,   2
 10619,'ARIGNA_T    ', 110.0000,1,     0.000,     0.000,   9,   1,1.05882,  -8.1424,   1
 10801,'AHANE       ',  11.0000,1,     0.000,     0.000,   7,   1,1.04644,  -3.3129,   2
 10901,'ADAMSTOW    ',  10.0000,1,     0.000,     0.000,   1,   1,1.04403,  -9.6287,   2
 11201,'ARKLOW      ',  10.0000,1,     0.000,     0.000,   6,   1,1.03730, -10.4459,   1
 11204,'ARKLOW      ',  38.0000,2,     0.000,     0.000,   6,   5,1.03830, -12.8036,   2
 11302,'ATHEA       ',  20.0000,1,     0.000,     0.000,   7,   5,1.00605,   5.3050,   4
 11371,'ATHEA       ',   1.0000,2,     0.000,     0.000,   7,   5,0.99737,   6.0856,   4
 11402,'LEABEG      ',  20.0000,2,     0.000,     0.000,   9,   5,1.01751, -14.3149,   1
 11404,'ATHLONE     ',  38.0000,1,     0.000,     0.000,   9,   1,1.04986, -14.5803,   2
 11461,'ATH_CAP     ', 110.0000,1,     0.000,     0.000,   9,   1,1.07534,  -7.4952,   1
 12001,'ARTANE      ',  10.0000,1,     0.000,     0.000,   1,   1,1.02687, -12.9443,   2
 12202,'ATHY        ',  20.0000,1,     0.000,     0.000,   8,   1,1.03474, -20.3421,   2
 12302,'BALLYWAT    ',  20.0000,1,     0.000,     0.000,   6,   1,1.01123,  -6.7910,   4
 12371,'BALLYWAT    ',   0.4000,2,     0.000,     0.000,   6,   5,1.02483,  -5.9042,   4
 12402,'BALLYCUM    ',  20.0000,1,     0.000,     0.000,   7,   1,1.02476,  -4.9927,   2
 12502,'BOOLTIAG    ',  20.0000,1,     0.000,     0.000,   4,   1,1.01366,  -3.3715,   4
 12571,'BOOLTIAG    ',   0.6900,2,     0.000,     0.000,   4,   5,1.02381,  -2.4921,   4
 12702,'BALTRASN    ',  20.0000,1,     0.000,     0.000,  10,   1,1.05024, -16.0314,   2