<!DOCTYPE HTML PUBLIC "-//W3C//DTD HTML 4.0 Transitional//EN">
<!-- saved from url=(0082)http://www.eirgrid.com/EirgridPortal/uploads/Publications/Winter%20Peak%202009.raw -->
<HTML><HEAD>
<META http-equiv=Content-Type content="text/html; charset=windows-1252">
<META content="MSHTML 6.00.2900.3492" name=GENERATOR></HEAD>
<BODY><PRE>0,   100.00          / PSS/E-30.3    WED, NOV 26 2008  11:34
/ CASE: 2009/2010;  WINTER 01/12/2009; FORECAST STATEMENT 20
/ FS08_SEP08 - MEMO  GALLERY_T;  14:43:33  TUESDAY, SEPTEMBE
    10,'F_M_____    ',  38.0000,1,     0.000,     0.000,   1,   3,1.02537, -14.7280,   2
    11,'FMN_LOOP    ',  38.0000,1,     0.000,     0.000,   1,   1,1.03469, -17.3030,   2
    12,'BEDFORD     ',  38.0000,1,     0.000,     0.000,   1,   1,1.05421, -13.5382,   2
    13,'M_R_____    ',  38.0000,1,     0.000,     0.000,   1,   1,1.04902, -13.6567,   2
    14,'F_I_____    ',  38.0000,1,     0.000,     0.000,   1,   3,1.03659, -12.4207,   2
    15,'I_M_____    ',  38.0000,1,     0.000,     0.000,   1,   1,1.02993, -12.2257,   2
  1021,'ARDNACRU    ', 110.0000,1,     0.000,     0.000,   4,   1,1.04796,  -5.8822,   1
  1041,'AGHADA      ', 110.0000,1,     0.000,     0.000,   3,   1,1.03734,  -6.9261,   1
  1042,'AGHADA      ', 220.0000,1,     0.000,     0.000,   3,   1,1.07459,   5.6606,   1
  1052,'AGHADA2     ', 220.0000,1,     0.000,     0.000,   3,   1,1.07500,   0.8637,   1
  1061,'ARIGNA      ', 110.0000,1,     0.000,     0.000,   9,   1,1.05857,  -8.5584,   2
  1062,'AGHADA3     ', 220.0000,1,     0.000,     0.000,   3,   1,1.07500,   0.8637,   1
  1071,'AGANNYGA    ', 110.0000,1,     0.000,     0.000,   4,   1,1.06680,  -6.1546,   1
  1072,'AGHADA4     ', 220.0000,1,     0.000,     0.000,   3,   1,1.07457,   5.6608,   1
  1081,'AHANE       ', 110.0000,1,     0.000,     0.000,   7,   1,1.04877,  -5.5417,   2
  1091,'ADAMSTOW    ', 110.0000,1,     0.000,     0.000,   1,   1,1.05572,  -8.8492,   2
  1101,'ANNER       ', 110.0000,1,     0.000,     0.000,   5,   3,1.04668, -13.1020,   5
  1121,'ARKLOW      ', 110.0000,1,     0.000,     0.000,   6,   1,1.07313, -10.8903,   1
  1122,'ARKLOW      ', 220.0000,1,     0.000,     0.000,   6,   1,1.05406,  -7.7368,   1
  1131,'ATHEA       ', 110.0000,1,     0.000,     0.000,   7,   5,1.07511,   0.4512,   4
  1141,'ATHLONE     ', 110.0000,1,     0.000,     0.000,   9,   1,1.06398,  -9.0855,   1
  1161,'AUGHINIS    ', 110.0000,1,     0.000,     0.000,   7,   3,1.07500,   0.4741,   1
  1181,'ARVA        ', 110.0000,1,     0.000,     0.000,  10,   1,1.04691, -10.8119,   1
  1201,'ARTANE      ', 110.0000,1,     0.000,     0.000,   1,   1,1.03977,  -8.6602,   2
  1221,'ATHY        ', 110.0000,1,     0.000,     0.000,   8,   1,1.03593, -10.9765,   1
  1231,'BALLYWAT    ', 110.0000,1,     0.000,     0.000,   6,   1,1.05813, -13.3292,   4
  1251,'BOOLTIAG    ', 110.0000,1,     0.000,     0.000,   4,   1,1.03867,  -6.5456,   2
  1271,'BALTRASN    ', 110.0000,1,     0.000,     0.000,  10,   1,1.03722,  -9.2735,   1
  1281,'BALLYLIC    ', 110.0000,1,     0.000,     0.000,   3,   1,1.02665,  -7.4005,   2
  1301,'BALLYBEG    ', 110.0000,1,     0.000,     0.000,   6,   1,1.06694, -11.6654,   1
  1321,'BLAKE       ', 110.0000,1,     0.000,     0.000,   8,   1,1.02532, -10.5744,   2
  1341,'BINBANE     ', 110.0000,1,     0.000,     0.000,   9,   1,1.02502,  -8.6370,   2
  1351,'BARODA      ', 110.0000,1,     0.000,     0.000,   8,   1,1.02946, -11.1754,   1
  1361,'BALLYDIN    ', 110.0000,1,     0.000,     0.000,   5,   1,1.04952, -12.5724,   1
  1381,'BARNAHEL    ', 110.0000,1,     0.000,     0.000,   3,   1,1.04880,  -7.0230,   1
  1401,'BELLACOR    ', 110.0000,1,     0.000,     0.000,   9,   1,1.05239, -12.7062,   1
  1421,'BLACKROC    ', 110.0000,1,     0.000,     0.000,   1,   2,1.07177, -11.3004,   2
  1441,'BANDON      ', 110.0000,1,     0.000,     0.000,   3,   1,1.03605,  -8.0762,   1
  1461,'BARRYMOR    ', 110.0000,1,     0.000,     0.000,   5,   1,1.04247,  -8.3197,   2
  1481,'BUTLERST    ', 110.0000,1,     0.000,     0.000,   5,   1,1.05543, -11.7313,   1
  1501,'BRINNY      ', 110.0000,1,     0.000,     0.000,   3,   1,1.03591,  -8.0848,   5
  1511,'BRINNY      ', 110.0000,1,     0.000,     0.000,   3,   1,1.03591,  -8.0844,   5
  1541,'BANOGE      ', 110.0000,1,     0.000,     0.000,   6,   1,1.05768, -12.3538,   1
  1581,'CABRA       ', 110.0000,1,     0.000,     0.000,   1,   2,1.03839,  -8.7482,   2
  1601,'CLASHAVO    ', 110.0000,1,     0.000,     0.000,   3,   1,1.05825,  -4.1869,   1
  1602,'CLASHAVO    ', 220.0000,1,     0.000,     0.000,   3,   1,1.06257,   1.0973,   1
  1611,'CLONKEEN    ', 110.0000,1,     0.000,     0.000,   7,   1,1.06916,  -3.0222,   1
  1621,'COOLROE     ', 110.0000,1,     0.000,     0.000,   3,   1,1.04498,  -6.2602,   1
  1631,'CORDERRY    ', 110.0000,1,     0.000,     0.000,   9,   1,1.06217,  -8.3324,   1
  1641,'CASHLA      ', 110.0000,1,     0.000,     0.000,   9,   1,1.06453,  -5.2551,   1
  1642,'CASHLA      ', 220.0000,1,     0.000,     0.000,   9,   1,1.06324,  -1.0593,   1
  1651,'CLAHANE     ', 110.0000,1,     0.000,     0.000,   7,   5,1.07500,  -0.5043,   1
  1661,'CASTLEBA    ', 110.0000,1,     0.000,     0.000,   9,   1,1.05763, -12.2681,   1
  1681,'CARRIGAD    ', 110.0000,1,     0.000,     0.000,   3,   1,1.05330,  -5.2453,   1
  1691,'CENTRAL     ', 110.0000,1,     0.000,     0.000,   1,   1,1.07306, -11.1646,   1
  1701,'CATH_FAL    ', 110.0000,1,     0.000,     0.000,   9,   1,1.05000,  -8.4804,   1
  1711,'CROMCAST    ', 110.0000,1,     0.000,     0.000,   1,   1,1.05798,  -8.1441,   1
  1721,'CAHIR       ', 110.0000,1,     0.000,     0.000,   5,   1,1.05521, -12.4080,   1
  1731,'CROMCAST    ', 110.0000,1,     0.000,     0.000,   1,   1,1.05798,  -8.1441,   1
  1741,'CARRICKM    ', 110.0000,1,     0.000,     0.000,   2,   2,1.07320, -11.1530,   2
  1742,'CARRICKM    ', 220.0000,1,     0.000,     0.000,   2,   2,1.06881,  -5.7098,   1
  1751,'CARRICKM    ', 110.0000,1,     0.000,     0.000,   2,   1,1.06881,  -5.7098,   1
  1761,'CLIFF       ', 110.0000,1,     0.000,     0.000,   9,   1,1.05010,  -8.2731,   1
  1781,'CASTLEFA    ', 110.0000,1,     0.000,     0.000,   7,   3,1.07464,   0.4565,   5
  1791,'CASTLEFA    ', 110.0000,1,     0.000,     0.000,   7,   3,1.07463,   0.4554,   5
  1801,'COOKSTOW    ', 110.0000,1,     0.000,     0.000,   1,   2,1.05553,  -8.2780,   2
  1811,'COOKSTOW    ', 110.0000,1,     0.000,     0.000,   1,   1,1.06062, -12.0181,   1
  1821,'CLOON       ', 110.0000,1,     0.000,     0.000,   9,   1,1.05943,  -7.9808,   1
  1841,'CRANE       ', 110.0000,1,     0.000,     0.000,   6,   1,1.05198, -13.4622,   1
  1851,'CHERRYWO    ', 110.0000,1,     0.000,     0.000,   2,   1,1.07131, -11.2462,   1
  1861,'CARICKON    ', 110.0000,1,     0.000,     0.000,   9,   1,1.05754,  -8.8852,   1
  1871,'COLLEGE     ', 110.0000,1,     0.000,     0.000,   2,   1,1.05240,  -7.5932,   1
  1881,'CHARLEVI    ', 110.0000,1,     0.000,     0.000,   3,   1,1.01699,  -7.0780,   1
  1901,'CARLOW      ', 110.0000,1,     0.000,     0.000,   6,   1,1.04991, -10.6179,   1
  1921,'COW CROS    ', 110.0000,1,     0.000,     0.000,   3,   1,1.04357,  -6.9364,   1
  1931,'CUNGHILL    ', 110.0000,1,     0.000,     0.000,   9,   1,1.06177, -10.6043,   4
  1941,'CUSHALIN    ', 110.0000,1,     0.000,     0.000,   8,   1,1.06872,  -8.9542,   1
  1961,'CASTLEVI    ', 110.0000,1,     0.000,     0.000,   3,   1,1.04292,  -6.3362,   1
  1971,'COOMAGEA    ', 110.0000,1,     0.000,     0.000,   7,   1,1.07122,  -2.7752,   4
  1981,'CORRACLA    ', 110.0000,1,     0.000,     0.000,   9,   1,1.05368, -10.6807,   1
  2001,'CULLENAG    ', 110.0000,1,     0.000,     0.000,   5,   1,1.06411, -11.0202,   1
  2002,'CULLENAG    ', 220.0000,1,     0.000,     0.000,   5,   1,1.04683,  -7.6349,   1
  2021,'CITY WES    ', 110.0000,1,     0.000,     0.000,   1,   1,1.05473,  -8.3181,   2
  2031,'CHARLESL    ', 110.0000,1,     0.000,     0.000,   6,   1,1.06488, -11.8312,   1
  2041,'CORDUFF     ', 110.0000,1,     0.000,     0.000,   2,   1,1.05320,  -7.5011,   1
  2042,'CORDUFF     ', 220.0000,1,     0.000,     0.000,   2,   1,1.07477,  -3.4971,   1
  2051,'CORDUFF     ', 110.0000,1,     0.000,     0.000,   2,   1,1.05320,  -7.5011,   1
  2081,'DUNKETTL    ', 110.0000,4,     0.000,     0.000,   3,   1,1.00000,   0.0000,   5
  2101,'DUNDALK     ', 110.0000,1,     0.000,     0.000,  10,   1,1.04839, -10.1871,   2
  2121,'DRUMLINE    ', 110.0000,1,     0.000,     0.000,   4,   1,1.03783,  -6.9437,   1
  2141,'DUNGARVA    ', 110.0000,1,     0.000,     0.000,   5,   1,1.03966, -10.1051,   1
  2161,'DOON        ', 110.0000,1,     0.000,     0.000,   5,   1,1.04725, -13.0684,   1
  2181,'DRYBRIDG    ', 110.0000,1,     0.000,     0.000,  10,   1,1.02702, -10.7210,   1
  2202,'DUNSTOWN    ', 220.0000,1,     0.000,     0.000,   2,   7,1.07296,  -4.4271,   1
  2204,'DUNSTOWN    ', 380.0000,1,     0.000,     0.000,   2,   1,1.02182,  -0.0584,   1
  2221,'DUNMANWA    ', 110.0000,1,     0.000,     0.000,   3,   1,1.03445,  -7.4094,   1
  2231,'DERRYBRI    ', 110.0000,1,     0.000,     0.000,   4,   1,1.07094,  -5.9094,   2
  2241,'DALLOW      ', 110.0000,1,     0.000,     0.000,   5,   1,1.05690,  -7.7503,   2
  2251,'DARDISTO    ', 110.0000,1,     0.000,     0.000,   1,   1,1.05926,  -8.0825,   1
  2261,'DERRYIRO    ', 110.0000,1,     0.000,     0.000,   8,   1,1.04273,  -9.6651,   1
  2281,'DALTON      ', 110.0000,1,     0.000,     0.000,   9,   1,1.05532, -10.7048,   1
  2301,'DUNFIRTH    ', 110.0000,1,     0.000,     0.000,   8,   1,1.04292,  -9.1119,   2
  2321,'DRUMKEEN    ', 110.0000,1,     0.000,     0.000,   9,   1,1.04475,  -9.2111,   1
  2361,'ENNIS       ', 110.0000,1,     0.000,     0.000,   4,   1,1.03842,  -6.8811,   1
  2481,'FASS EAS    ', 110.0000,1,     0.000,     0.000,   2,   2,1.06571, -11.5338,   2
  2491,'FASS WES    ', 110.0000,1,     0.000,     0.000,   2,   2,1.06607, -11.5152,   2
  2521,'FLAGFORD    ', 110.0000,1,     0.000,     0.000,   9,   1,1.05910,  -8.7553,   1
  2522,'FLAGFORD    ', 220.0000,1,     0.000,     0.000,   9,   7,1.05820,  -6.2246,   1
  2541,'FRN ST A    ', 110.0000,1,     0.000,     0.000,   1,   2,1.06123,  -9.5165,   2
  2551,'FRN ST B    ', 110.0000,1,     0.000,     0.000,   1,   2,1.05537,  -8.2726,   2
  2561,'FIN_URBA    ', 110.0000,1,     0.000,     0.000,   2,   2,1.04301,  -8.4297,   1
  2562,'FINGLAS     ', 220.0000,1,     0.000,     0.000,   2,   7,1.07500,  -3.5977,   1
  2571,'FIN_RURA    ', 110.0000,1,     0.000,     0.000,   2,   2,1.05958,  -7.9750,   1
  2581,'FIN_SUBU    ', 110.0000,1,     0.000,     0.000,   2,   1,1.05227,  -7.6219,   1
  2591,'FIN_OPEN    ', 110.0000,1,     0.000,     0.000,   2,   1,1.07500,  -3.5977,   2
  2671,'GARVAGH     ', 110.0000,1,     0.000,     0.000,   9,   1,1.06725,  -8.1454,   4
  2681,'GILRA       ', 110.0000,1,     0.000,     0.000,   9,   3,1.06031,  -9.0515,   2
  2701,'GLASMORE    ', 110.0000,1,     0.000,     0.000,   1,   2,1.03683,  -8.9760,   2
  2721,'GRIFFINR    ', 110.0000,1,     0.000,     0.000,   2,   2,1.04792,  -9.0012,   2
  2731,'GLANLEE     ', 110.0000,1,     0.000,     0.000,   7,   5,1.07129,  -2.7586,   4
  2741,'GREAT IS    ', 110.0000,1,     0.000,     0.000,   6,   1,1.06531, -11.3127,   1
  2742,'GREAT IS    ', 220.0000,1,     0.000,     0.000,   6,   7,1.05542,  -7.8171,   1
  2761,'GRANGE      ', 110.0000,1,     0.000,     0.000,   1,   2,1.05678,  -8.2006,   2
  2771,'GARROW      ', 110.0000,1,     0.000,     0.000,   7,   1,1.07230,  -2.9571,   7
  2781,'GALWAY      ', 110.0000,1,     0.000,     0.000,   9,   1,1.04651,  -5.9636,   1
  2801,'GOLAGH      ', 110.0000,1,     0.000,     0.000,   9,   1,1.04663,  -8.7840,   4
  2821,'GORTAWEE    ', 110.0000,1,     0.000,     0.000,   9,   1,1.05071, -11.1409,   1
  2841,'GORMAN      ', 110.0000,1,     0.000,     0.000,  10,   1,1.03634, -10.5729,   1
  2842,'GORMAN      ', 220.0000,1,     0.000,     0.000,  10,   1,1.05239,  -7.1374,   1
  2852,'GLANAGOW    ', 220.0000,1,     0.000,     0.000,   3,   1,1.07677,   1.1392,   1
  2861,'GRANGE C    ', 110.0000,1,     0.000,     0.000,   1,   1,1.05473,  -8.9160,   2
  2881,'GLENLARA    ', 110.0000,1,     0.000,     0.000,   3,   1,1.00749,  -6.8667,   2
  2941,'HAROLDS     ', 110.0000,1,     0.000,     0.000,   1,   2,1.06141,  -9.4979,   2
  2951,'HEUSTON     ', 110.0000,1,     0.000,     0.000,   1,   1,1.05575,  -8.2543,   1
  2962,'HUNTSTOW    ', 220.0000,1,     0.000,     0.000,   2,   1,1.07556,  -3.4979,   4
  2972,'HUNTSTOW    ', 220.0000,1,     0.000,     0.000,   2,   1,1.07600,  -3.1442,   4
  2981,'HARNETTS    ', 110.0000,1,     0.000,     0.000,   3,   1,1.05264,  -5.2707,   2
  3061,'INISCARR    ', 110.0000,1,     0.000,     0.000,   3,   1,1.04787,  -6.0661,   1
  3081,'INCH_CIT    ', 110.0000,1,     0.000,     0.000,   1,   2,1.05642,  -8.2085,   2
  3082,'INCHICOR    ', 220.0000,1,     0.000,     0.000,   2,   2,1.07306,  -5.8917,   1
  3091,'INCH_COU    ', 110.0000,1,     0.000,     0.000,   1,   1,1.05964,  -8.5007,   2
  3101,'IKERRIN     ', 110.0000,1,     0.000,     0.000,   5,   1,1.04134, -12.2334,   2
  3122,'IRISHTOW    ', 220.0000,1,     0.000,     0.000,   2,   1,1.07500,  -5.0405,   1
  3201,'KNOCKRAH    ', 110.0000,1,     0.000,     0.000,   3,   1,1.04670,  -5.8162,   1
  3202,'KNOCKRAH    ', 220.0000,1,     0.000,     0.000,   3,   7,1.06001,   1.8305,   1
  3212,'KNOCKRAH    ', 220.0000,1,     0.000,     0.000,   3,   1,1.05056,  -3.0351,   1
  3221,'KILBARRY    ', 110.0000,1,     0.000,     0.000,   3,   1,1.03410,  -7.0216,   1
  3241,'KILTEEL     ', 110.0000,1,     0.000,     0.000,   8,   1,1.03844, -10.9489,   2
  3261,'KILKENNY    ', 110.0000,1,     0.000,     0.000,   6,   1,1.02755, -13.4715,   1
  3281,'KILLONAN    ', 110.0000,1,     0.000,     0.000,   7,   1,1.04921,  -5.5025,   1
  3282,'KILLONAN    ', 220.0000,1,     0.000,     0.000,   7,   7,1.05028,  -1.1717,   1
  3301,'KNOCKERA    ', 110.0000,1,     0.000,     0.000,   7,   1,1.05623,  -3.3720,   1
  3321,'KNOCKUMB    ', 110.0000,1,     0.000,     0.000,  10,   3,1.02753, -11.2925,   5
  3341,'KELLIS      ', 110.0000,1,     0.000,     0.000,   6,   1,1.05552, -10.4641,   1
  3342,'KELLIS      ', 220.0000,1,     0.000,     0.000,   6,   1,1.04958,  -7.3191,   1
  3361,'KILTOY      ', 110.0000,1,     0.000,     0.000,   9,   3,1.04033,  -9.7551,   5
  3381,'KINNEGAD    ', 110.0000,1,     0.000,     0.000,   8,   1,1.04081,  -9.6627,   1
  3401,'KILLOTER    ', 110.0000,1,     0.000,     0.000,   5,   1,1.05715, -11.6992,   1
  3421,'KILMORE     ', 110.0000,1,     0.000,     0.000,   1,   1,1.05796,  -8.1437,   2
  3431,'KILMAHUD    ', 110.0000,1,     0.000,     0.000,   1,   1,1.05445,  -8.9328,   1
  3501,'LANESBOR    ', 110.0000,1,     0.000,     0.000,   9,   1,1.06678,  -8.7386,   1
  3521,'LOUTH       ', 110.0000,1,     0.000,     0.000,  10,   1,1.07089,  -9.3532,   1
  3522,'LOUTH       ', 220.0000,1,     0.000,     0.000,  10,   7,1.05152,  -6.6238,   1
  3541,'LIMERICK    ', 110.0000,1,     0.000,     0.000,   7,   1,1.04385,  -5.2417,   1
  3561,'LISDRUM     ', 110.0000,1,     0.000,     0.000,  10,   1,1.06401, -11.7908,   1
  3572,'LONGPOIN    ', 220.0000,1,     0.000,     0.000,   3,   1,1.07500,   5.7283,   1
  3581,'LETTERKE    ', 110.0000,1,     0.000,     0.000,   9,   1,1.04032,  -9.7548,   1
  3601,'LIBERTY     ', 110.0000,1,     0.000,     0.000,   3,   1,1.03459,  -7.2833,   2
  3611,'LIBERTY     ', 110.0000,1,     0.000,     0.000,   3,   1,1.03492,  -7.2765,   2
  3621,'LISHEEN     ', 110.0000,1,     0.000,     0.000,   5,   1,1.04066, -14.1648,   5
  3751,'MISERY H    ', 110.0000,1,     0.000,     0.000,   1,   1,1.06197,  -9.4416,   2
  3761,'MACETOWN    ', 110.0000,1,     0.000,     0.000,   1,   2,1.05136,  -7.6699,   1
  3781,'MCDERMOT    ', 110.0000,1,     0.000,     0.000,   1,   2,1.03855,  -8.7350,   2
  3801,'MIDLETON    ', 110.0000,1,     0.000,     0.000,   3,   1,1.03468,  -6.6191,   1
  3821,'MEATH HI    ', 110.0000,1,     0.000,     0.000,  10,   1,1.04573, -10.2978,   2
  3841,'MAYNOOTH    ', 110.0000,1,     0.000,     0.000,   2,   2,1.05056,  -8.8577,   1
  3842,'MAYNOOTH    ', 220.0000,1,     0.000,     0.000,   2,   7,1.06640,  -5.9365,   1
  3851,'MAYNOOTH    ', 110.0000,1,     0.000,     0.000,   2,   2,1.05188,  -7.9423,   1
  3852,'MAYNOOTH    ', 220.0000,1,     0.000,     0.000,   2,   2,1.07008,  -5.1098,   1
  3861,'MILLTOWN    ', 110.0000,1,     0.000,     0.000,   1,   2,1.06270,  -9.3736,   2
  3871,'MILLTOWN    ', 110.0000,1,     0.000,     0.000,   1,   2,1.05268,  -8.4280,   2
  3881,'MACROOM     ', 110.0000,1,     0.000,     0.000,   3,   1,1.05356,  -5.2014,   1
  3901,'MONETEEN    ', 110.0000,1,     0.000,     0.000,   7,   1,1.04741,  -4.2239,   1
  3934,'MNYPG1      ', 380.0000,1,     0.000,     6.000,   4,   1,1.07500,   6.7387,   1
  3941,'MONEYPOI    ', 110.0000,1,     0.000,     0.000,   4,   1,1.03391,  -6.3276,   1
  3942,'MONEYPOI    ', 220.0000,1,     0.000,     0.000,   7,   1,1.08436,   4.7127,   1
  3944,'MNYPG3      ', 380.0000,1,     0.000,     6.000,   4,   1,1.07500,   6.7387,   1
  3954,'MNYPG2      ', 380.0000,1,     0.000,     6.000,   7,   1,1.07500,   8.9395,   1
  3961,'MARINA      ', 110.0000,1,     0.000,     0.000,   3,   1,1.03505,  -7.2656,   1
  3981,'MUNGRET     ', 110.0000,1,     0.000,     0.000,   7,   3,1.04716,  -4.2379,   5
  3991,'MUNGRET     ', 110.0000,1,     0.000,     0.000,   7,   3,1.04717,  -4.2372,   5
  4001,'MULLINGA    ', 110.0000,1,     0.000,     0.000,   9,   1,1.02043, -10.4920,   1
  4021,'MALLOW      ', 110.0000,1,     0.000,     0.000,   3,   1,1.01785,  -7.3892,   1
  4041,'MOY         ', 110.0000,1,     0.000,     0.000,   9,   1,1.05171, -12.9055,   1
  4061,'MULLAGHA    ', 110.0000,1,     0.000,     0.000,  10,   1,1.05251, -10.1029,   2
  4071,'MEENTYCA    ', 110.0000,1,     0.000,     0.000,   9,   1,1.04684,  -8.9416,   4
  4081,'MONREAD     ', 110.0000,1,     0.000,     0.000,   8,   1,1.03240, -11.1968,   1
  4201,'NEWBRIDG    ', 110.0000,1,     0.000,     0.000,   8,   1,1.02986, -10.9679,   1
  4211,'NORTH QU    ', 110.0000,1,     0.000,     0.000,   1,   1,1.06305,  -9.3516,   2
  4221,'NAVAN       ', 110.0000,1,     0.000,     0.000,  10,   1,1.03177, -11.0675,   1
  4242,'NORTH WA    ', 220.0000,1,     0.000,     0.000,   2,   2,1.07729,  -3.4956,   1
  4261,'NENAGH      ', 110.0000,1,     0.000,     0.000,   7,   1,1.01810,  -7.0216,   2
  4281,'NANGOR      ', 110.0000,1,     0.000,     0.000,   1,   1,1.05453,  -8.9277,   2
  4341,'OLDCOURT    ', 110.0000,1,     0.000,     0.000,   3,   3,1.04355,  -6.9375,   5
  4351,'OLDCOURT    ', 110.0000,1,     0.000,     0.000,   3,   3,1.04357,  -6.9365,   5
  4361,'OUGHTRAG    ', 110.0000,1,     0.000,     0.000,   7,   1,1.04868,  -2.9432,   2
  4382,'OLDSTREE    ', 220.0000,1,     0.000,     0.000,   4,   1,1.07119,   3.8975,   1
  4384,'OLDSTREE    ', 380.0000,1,     0.000,     0.000,   4,   1,1.06294,   3.8284,   1
  4401,'POPPINTR    ', 110.0000,1,     0.000,     0.000,   1,   1,1.05863,  -8.0648,   2
  4441,'POLLAPHU    ', 110.0000,1,     0.000,     0.000,   6,   1,1.07500,  -9.3524,   1
  4461,'POOLBEG     ', 110.0000,1,     0.000,     0.000,   1,   1,1.06389,  -9.2245,   2
  4462,'POOLBEG     ', 220.0000,1,     0.000,     0.000,   2,   2,1.07712,  -3.5126,   1
  4471,'POOLBEG     ', 110.0000,1,     0.000,     0.000,   1,   1,1.06388,  -9.2277,   2
  4472,'POOLBEG     ', 220.0000,1,     0.000,     0.000,   2,   2,1.07417,  -6.0380,   1
  4481,'PORTLAOI    ', 110.0000,1,     0.000,     0.000,   8,   1,1.03806, -10.6062,   1
  4491,'PELLETST    ', 110.0000,1,     0.000,     0.000,   1,   1,1.03937,  -8.6694,   1
  4501,'PLATIN      ', 110.0000,1,     0.000,     0.000,  10,   3,1.02718, -10.6732,   1
  4511,'POTTERY     ', 110.0000,1,     0.000,     0.000,   1,   1,1.07258, -11.2228,   2
  4522,'PROSPECT    ', 220.0000,1,     0.000,     0.000,   7,   1,1.07947,   3.6029,   1
  4621,'RYEBROOK    ', 110.0000,1,     0.000,     0.000,   2,   3,1.04183,  -8.5438,   1
  4651,'RINGSEND    ', 110.0000,1,     0.000,     0.000,   1,   2,1.06339,  -9.3322,   2
  4681,'RATHKEAL    ', 110.0000,1,     0.000,     0.000,   7,   1,1.05386,  -2.5640,   1
  4701,'RICHMOND    ', 110.0000,1,     0.000,     0.000,   9,   1,1.05957,  -9.1137,   2
  4711,'RICHMOND    ', 110.0000,1,     0.000,     0.000,   9,   1,1.05944,  -9.1178,   2
  4721,'RAFFEEN     ', 110.0000,1,     0.000,     0.000,   3,   1,1.04987,  -6.9549,   1
  4722,'RAFFEEN     ', 220.0000,1,     0.000,     0.000,   3,   1,1.03427,  -4.5869,   1
  4741,'RINAWADE    ', 110.0000,1,     0.000,     0.000,   2,   3,1.04772,  -8.3265,   1
  4761,'RINGASKI    ', 110.0000,1,     0.000,     0.000,   3,   1,1.04955,  -6.9724,   2
  4781,'RATRUSSA    ', 110.0000,1,     0.000,     0.000,  10,   1,1.06361, -10.3194,   1
  4941,'SHANNONB    ', 110.0000,1,     0.000,     0.000,   5,   1,1.07500,  -6.6516,   1
  4942,'SHANNONB    ', 220.0000,1,     0.000,     0.000,   5,   1,1.06584,  -4.5747,   1
  4961,'SHANKILL    ', 110.0000,1,     0.000,     0.000,  10,   1,1.04347, -11.3578,   1
  4981,'SLIGO       ', 110.0000,1,     0.000,     0.000,   9,   1,1.05320,  -9.6292,   1
  4991,'SORNE HI    ', 110.0000,1,     0.000,     0.000,   9,   1,1.03815,  -9.0270,   2
  5001,'SOMERSET    ', 110.0000,1,     0.000,     0.000,   9,   1,1.06250,  -6.7751,   2
  5022,'SHELLYBA    ', 220.0000,1,     0.000,     0.000,   2,   7,1.07721,  -3.5065,   1
  5031,'STEVENST    ', 110.0000,1,     0.000,     0.000,   1,   1,1.04278,  -8.8782,   2
  5041,'SRANANAG    ', 110.0000,1,     0.000,     0.000,   9,   1,1.05736,  -8.8494,   1
  5042,'SRANANAG    ', 220.0000,1,     0.000,     0.000,   9,   1,1.05721,  -7.3531,   1
  5051,'SEAL ROC    ', 110.0000,1,     0.000,     0.000,   7,   1,1.07556,   0.5104,   4
  5061,'STRATFOR    ', 110.0000,1,     0.000,     0.000,   6,   1,1.05212, -10.4937,   2
  5071,'SEAL ROC    ', 110.0000,1,     0.000,     0.000,   7,   1,1.07556,   0.5104,   4
  5091,'SINGLAND    ', 110.0000,1,     0.000,     0.000,   7,   1,1.04819,  -5.7104,   1
  5122,'SHELLYBA    ', 220.0000,1,     0.000,     0.000,   2,   2,1.07553,  -4.9664,   1
  5131,'TANEY       ', 110.0000,1,     0.000,     0.000,   1,   1,1.05243,  -8.4604,   2
  5141,'TARBERT     ', 110.0000,1,     0.000,     0.000,   7,   1,1.07728,   1.1447,   1
  5142,'TARBERT     ', 220.0000,1,     0.000,     0.000,   7,   1,1.07500,   3.0903,   1
  5172,'TYNAGH      ', 220.0000,1,     0.000,     0.000,   4,   1,1.07500,   3.9050,   1
  5181,'TRABEG      ', 110.0000,1,     0.000,     0.000,   3,   1,1.03573,  -7.3166,   1
  5202,'TURLOUGH    ', 220.0000,1,     0.000,     0.000,   2,   1,1.07465,  -3.8795,   1
  5221,'TULLABRA    ', 110.0000,1,     0.000,     0.000,   4,   1,1.03286,  -6.4652,   2
  5231,'TRINITY     ', 110.0000,1,     0.000,     0.000,   1,   1,1.06149,  -9.4803,   1
  5241,'TAWN_A      ', 110.0000,1,     0.000,     0.000,   9,   3,1.05175, -12.9065,   2
  5251,'TAWN_B      ', 110.0000,1,     0.000,     0.000,   9,   3,1.05175, -12.9065,   2
  5261,'TRIEN       ', 110.0000,1,     0.000,     0.000,   7,   1,1.07844,   0.0896,   1
  5281,'TRALEE      ', 110.0000,1,     0.000,     0.000,   7,   1,1.06465,  -1.5826,   1
  5301,'THURLES     ', 110.0000,1,     0.000,     0.000,   5,   1,1.04570, -13.8580,   1
  5321,'THORNSBE    ', 110.0000,1,     0.000,     0.000,   8,   1,1.03870, -10.0373,   2
  5341,'TONROE      ', 110.0000,1,     0.000,     0.000,   9,   1,1.04748,  -9.1615,   2
  5361,'TRILLICK    ', 110.0000,1,     0.000,     0.000,   9,   1,1.03620,  -9.1611,   2
  5381,'TIPPERAR    ', 110.0000,1,     0.000,     0.000,   5,   1,1.04431, -10.1367,   1
  5441,'WATERFOR    ', 110.0000,1,     0.000,     0.000,   5,   1,1.05849, -11.6607,   1
  5462,'WOODLAND    ', 220.0000,1,     0.000,     0.000,   2,   1,1.07525,  -3.5875,   1
  5464,'WOODLAND    ', 380.0000,1,     0.000,     0.000,   2,   1,1.02643,   0.2508,   1
  5481,'WHITEGAT    ', 110.0000,1,     0.000,     0.000,   3,   3,1.03747,  -6.9183,   1
  5501,'WEXFORD     ', 110.0000,1,     0.000,     0.000,   6,   1,1.04642, -13.7110,   1
  5521,'WOLFE TO    ', 110.0000,1,     0.000,     0.000,   1,   1,1.03821,  -8.7551,   2
 10204,'ARDNACRU    ',  38.0000,2,     0.000,     0.000,   4,   5,1.04016,  -7.4488,   2
 10205,'ARDNACRU    ',  38.0000,1,     0.000,     0.000,   4,   1,1.04076, -18.0470,   2
 10261,'ARDNACRU    ', 110.0000,1,     0.000,     0.000,   4,   1,1.04796,  -5.8822,   1
 10271,'ARDNG1      ',  10.5000,2,     0.000,     0.000,   4,   1,1.00316,  -1.7706,   3
 10272,'ARDNG2      ',  10.5000,2,     0.000,     0.000,   4,   1,1.00856,  -1.2597,   3
 10273,'ARDNG3      ',  10.5000,2,     0.000,     0.000,   4,   1,1.00151,  -1.9764,   3
 10274,'ARDNG4      ',  10.5000,2,     0.000,     0.000,   4,   1,1.00250,  -1.9202,   3
 10401,'AGHADA      ',  10.0000,1,     0.000,     0.000,   3,   1,0.99649,  -6.9261,   3
 10471,'AGH_G1      ',  20.0000,2,     0.000,     0.000,   3,   1,0.98481,   5.6606,   3
 10472,'AGH_G11     ',  10.5000,2,     0.000,     0.000,   3,   1,1.00000,   0.8637,   3
 10473,'AGH_G12     ',  10.5000,2,     0.000,     0.000,   3,   1,1.00000,   0.8637,   3
 10474,'AGH_G14     ',  10.5000,2,     0.000,     0.000,   3,   1,1.00000,   0.8637,   3
 10475,'AGH_PEAK    ',  10.5000,2,     0.000,     0.000,   3,   1,1.00939,  -6.9261,   3
 10602,'ARIGNA      ',  20.0000,2,     0.000,     0.000,   9,   5,1.05458,  -8.6246,   2
 10619,'ARIGNA_T    ', 110.0000,1,     0.000,     0.000,   9,   1,1.05861,  -8.5595,   1
 10801,'AHANE       ',  11.0000,1,     0.000,     0.000,   7,   1,1.04880,  -6.9148,   2
 10901,'ADAMSTOW    ',  10.0000,1,     0.000,     0.000,   1,   1,1.04250, -10.8152,   2
 11201,'ARKLOW      ',  10.0000,1,     0.000,     0.000,   6,   1,1.05350, -11.5516,   1
 11204,'ARKLOW      ',  38.0000,2,     0.000,     0.000,   6,   5,1.04634, -13.4424,   2
 11302,'ATHEA       ',  20.0000,1,     0.000,     0.000,   7,   5,0.99355,   1.8004,   4
 11371,'ATHEA       ',   1.0000,2,     0.000,     0.000,   7,   5,0.97731,   2.1803,   4
 11404,'ATHLONE     ',  38.0000,1,     0.000,     0.000,   9,   1,1.04890, -15.3561,   2
 11461,'ATH_CAP     ', 110.0000,1,     0.000,     0.000,   9,   1,1.06398,  -9.0855,   1
 12001,'ARTANE      ',  10.0000,1,     0.000,     0.000,   1,   1,1.02509, -11.1310,   2
 12202,'ATHY        ',  20.0000,1,     0.000,     0.000,   8,   1,1.04927, -21.5041,   2
 12302,'BALLYWAT    ',  20.0000,1,     0.000,     0.000,   6,   1,1.01699, -11.2720,   4
 12371,'BALLYWAT    ',   0.4000,2,     0.000,     0.000,   6,   5,1.03052, -10.3951,   4
 12502,'BOOLTIAG    ',  20.0000,1,     0.000,     0.000,   4,   1,1.01866,  -5.2999,   4
 12571,'BOOLTIAG    ',   0.6900,2,     0.000,     0.000,   4,   5,1.02875,  -4.4289,   4
 12702,'BALTRASN    ',  20.0000,1,     0.000,     0.000,  10,   1,1.02927, -15.5546,   2
 12804,'BALLYLIC    ',  38.0000,2,     0.000,     0.000,   3,   5,1.02426,  -7.9675,   2
 13001,'BALLYBEG    ',  10.0000,1,     0.000,     0.000,   6,   1,1.04069, -13.6837,   2
 13204,'BLAKE       ',  38.0000,1,     0.000,     0.000,   8,   1,1.04358, -17.6302,   2
 13219,'BLAKE T     ', 110.0000,1,     0.000,     0.000,   8,   1,1.02593, -10.5490,   1
 13404,'BINBANE     ',  38.0000,2,     0.000,     0.000,   9,   5,1.02025, -10.6219,   2
 13501,'BARODA      ',  10.0000,1,     0.000,     0.000,   8,   1,1.04051, -11.9139,   2
 13601,'BALLYDIN    ',  10.0000,1,     0.000,     0.000,   5,   1,1.03959, -14.1853,   2
 13604,'BALLYDIN    ',  38.0000,1,     0.000,     0.000,   5,   1,1.03881, -14.5678,   2
 13802,'BARNAHEL    ',  20.0000,1,     0.000,     0.000,   3,   1,1.04674, -10.3266,   2
 13804,'BARNAHEL    ',  38.0000,1,     0.000,     0.000,   3,   1,1.04584,  -9.4559,   2
 14002,'BELLACOR    ',  20.0000,2,     0.000,     0.000,   9,   5,1.02246, -14.6592,   2
 14004,'BELLACOR    ',  38.0000,1,     0.000,     0.000,   9,   1,1.00200, -12.7062,   1
 14061,'BELL_CAP    ', 110.0000,1,     0.000,     0.000,   9,   1,1.05239, -12.7062,   1
 14204,'BLACKROC    ',  38.0000,1,     0.000,     0.000,   1,   1,1.03770, -14.9316,   2
 14401,'BANDON      ',  10.0000,1,     0.000,     0.000,   3,   1,1.03285, -11.1432,   2
 14404,'BANDON      ',  38.0000,2,     0.000,     0.000,   3,   5,1.03740, -11.7206,   2
 14461,'BAN_CAP     ', 110.0000,1,     0.000,     0.000,   3,   1,1.03605,  -8.0762,   1
 14604,'BARRYMOR    ',  38.0000,2,     0.000,     0.000,   5,   3,1.03657, -13.9544,   2
 14619,'BARRYM T    ', 110.0000,1,     0.000,     0.000,   5,   1,1.04269,  -8.3079,   1
 14804,'BUTLERST    ',  38.0000,2,     0.000,     0.000,   5,   5,1.05073, -18.0201,   2
 15001,'BRINNY      ',  10.0000,1,     0.000,     0.000,   3,   1,1.04502,  -9.2238,   5
 15402,'BANOGE      ',  20.0000,1,     0.000,     0.000,   6,   1,1.05332, -16.9403,   2
 15801,'CABRA       ',  10.0000,1,     0.000,     0.000,   1,   1,1.02109, -11.9699,   2
 16202,'COOLROE     ',  20.0000,1,     0.000,     0.000,   3,   1,1.03665,  -7.7623,   2
 16302,'CORDERRY    ',  20.0000,1,     0.000,     0.000,   9,   5,1.01500,  -3.9251,   7
 16351,'CORDERRY    ',  20.0000,1,     0.000,     0.000,   9,   5,1.01631,  -2.1902,   1
 16354,'CORDERRY    ',  20.0000,1,     0.000,     0.000,   9,   5,1.02249,  -1.1642,   1
 16361,'CARANNE     ',  20.0000,1,     0.000,     0.000,   9,   5,1.01576,  -1.8757,   1
 16362,'CORDERRY    ',  20.0000,1,     0.000,     0.000,   9,   5,1.01814,  -2.3619,   1
 16364,'CORDERRY    ',  20.0000,1,     0.000,     0.000,   9,   5,1.02267,  -1.1259,   1
 16365,'CORDERRY    ',  20.0000,1,     0.000,     0.000,   9,   5,1.02252,  -1.1401,   1
 16366,'CORDERRY    ',  20.0000,1,     0.000,     0.000,   9,   5,1.01665,  -2.1142,   1
 16367,'TULLYNAM    ',  20.0000,1,     0.000,     0.000,   9,   1,1.03389,  -3.4243,   1
 16371,'CARANNE     ',   0.6900,2,     0.000,     0.000,   9,   5,1.00535,  -0.7539,   1