<!DOCTYPE HTML PUBLIC "-//W3C//DTD HTML 4.0 Transitional//EN">
<!-- saved from url=(0082)http://www.eirgrid.com/EirgridPortal/uploads/Publications/Winter%20Peak%202011.raw -->
<HTML><HEAD>
<META http-equiv=Content-Type content="text/html; charset=windows-1252">
<META content="MSHTML 6.00.2900.3492" name=GENERATOR></HEAD>
<BODY><PRE>0,   100.00          / PSS/E-30.3    WED, NOV 26 2008  12:20
/ CASE: 2011/2012;  WINTER 01/12/2011; FORECAST STATEMENT 20
/ FS08_SEP08 - MEMO  GALLERY_T;  15:59:28  TUESDAY, SEPTEMBE
    10,'F_M_____    ',  38.0000,1,     0.000,     0.000,   1,   3,1.04500, -15.8427,   2
    11,'FMN_LOOP    ',  38.0000,1,     0.000,     0.000,   1,   1,1.02568, -18.9543,   2
    12,'BEDFORD     ',  38.0000,1,     0.000,     0.000,   1,   1,1.05201, -13.3584,   2
    13,'M_R_____    ',  38.0000,1,     0.000,     0.000,   1,   1,1.04500, -13.4936,   2
    14,'F_I_____    ',  38.0000,1,     0.000,     0.000,   1,   3,1.03158, -12.3033,   2
    15,'I_M_____    ',  38.0000,1,     0.000,     0.000,   1,   1,1.02443, -12.0959,   2
  1021,'ARDNACRU    ', 110.0000,1,     0.000,     0.000,   4,   1,1.04512,  -2.8536,   1
  1041,'AGHADA      ', 110.0000,1,     0.000,     0.000,   3,   1,1.05596,   0.1117,   1
  1042,'AGHADA      ', 220.0000,1,     0.000,     0.000,   3,   1,1.07500,   9.4626,   1
  1052,'AGHADA2     ', 220.0000,1,     0.000,     0.000,   3,   1,1.07500,   2.3186,   1
  1061,'ARIGNA      ', 110.0000,1,     0.000,     0.000,   9,   1,1.06465,  -8.7424,   2
  1062,'AGHADA3     ', 220.0000,1,     0.000,     0.000,   3,   1,1.07500,   2.3186,   1
  1071,'AGANNYGA    ', 110.0000,1,     0.000,     0.000,   4,   1,1.06505,  -4.6565,   1
  1072,'AGHADA4     ', 220.0000,1,     0.000,     0.000,   3,   1,1.07455,  11.0519,   1
  1081,'AHANE       ', 110.0000,1,     0.000,     0.000,   7,   1,1.04698,  -2.0461,   2
  1091,'ADAMSTOW    ', 110.0000,1,     0.000,     0.000,   1,   1,1.06110,  -7.3161,   2
  1101,'ANNER       ', 110.0000,1,     0.000,     0.000,   5,   3,1.03968, -10.7382,   5
  1121,'ARKLOW      ', 110.0000,1,     0.000,     0.000,   6,   1,1.06266, -10.0981,   1
  1122,'ARKLOW      ', 220.0000,1,     0.000,     0.000,   6,   1,1.02889,  -7.4647,   1
  1131,'ATHEA       ', 110.0000,1,     0.000,     0.000,   7,   5,1.07500,   2.2474,   4
  1141,'ATHLONE     ', 110.0000,1,     0.000,     0.000,   9,   1,1.07895,  -7.6738,   1
  1161,'AUGHINIS    ', 110.0000,1,     0.000,     0.000,   7,   3,1.07500,   3.0126,   1
  1181,'ARVA        ', 110.0000,1,     0.000,     0.000,  10,   1,1.05953, -11.3496,   1
  1201,'ARTANE      ', 110.0000,1,     0.000,     0.000,   1,   1,1.03591,  -9.6323,   2
  1221,'ATHY        ', 110.0000,1,     0.000,     0.000,   8,   1,1.03262, -11.5289,   1
  1231,'BALLYWAT    ', 110.0000,1,     0.000,     0.000,   6,   1,1.05854,  -9.7480,   4
  1241,'BALLYCUM    ', 110.0000,1,     0.000,     0.000,   7,   1,1.04263,  -1.7351,   1
  1251,'BOOLTIAG    ', 110.0000,1,     0.000,     0.000,   4,   1,1.03496,  -4.5157,   2
  1271,'BALTRASN    ', 110.0000,1,     0.000,     0.000,  10,   1,1.04599,  -9.5709,   1
  1281,'BALLYLIC    ', 110.0000,1,     0.000,     0.000,   3,   1,1.03261,  -1.5233,   2
  1301,'BALLYBEG    ', 110.0000,1,     0.000,     0.000,   6,   1,1.04376, -11.2823,   1
  1321,'BLAKE       ', 110.0000,1,     0.000,     0.000,   8,   1,1.02271, -10.6347,   2
  1331,'BALLYCAD    ', 110.0000,1,     0.000,     0.000,   6,   1,1.05277,  -8.9012,   1
  1341,'BINBANE     ', 110.0000,1,     0.000,     0.000,   9,   1,1.02479, -10.0884,   2
  1351,'BARODA      ', 110.0000,1,     0.000,     0.000,   8,   1,1.02531, -11.2286,   1
  1361,'BALLYDIN    ', 110.0000,1,     0.000,     0.000,   5,   1,1.04369, -10.5431,   1
  1371,'BALLYMUR    ', 110.0000,1,     0.000,     0.000,   4,   1,1.03370,  -4.4932,   2
  1381,'BARNAHEL    ', 110.0000,1,     0.000,     0.000,   3,   1,1.04872,  -0.6155,   1
  1391,'BARNAHEL    ', 110.0000,1,     0.000,     0.000,   3,   1,1.05144,  -1.0333,   1
  1401,'BELLACOR    ', 110.0000,1,     0.000,     0.000,   9,   1,1.06561, -11.5458,   1
  1421,'BLACKROC    ', 110.0000,1,     0.000,     0.000,   1,   2,1.02565, -11.5063,   2
  1441,'BANDON      ', 110.0000,1,     0.000,     0.000,   3,   1,1.03993,  -2.1553,   1
  1461,'BARRYMOR    ', 110.0000,1,     0.000,     0.000,   5,   1,1.04224,  -3.1851,   2
  1471,'BALGRIFF    ', 110.0000,1,     0.000,     0.000,   1,   1,1.06346,  -7.4108,   2
  1472,'BALGRIFF    ', 220.0000,1,     0.000,     0.000,   1,   1,1.07492,  -4.5443,   2
  1481,'BUTLERST    ', 110.0000,1,     0.000,     0.000,   5,   1,1.05190, -10.5875,   1
  1501,'BRINNY      ', 110.0000,1,     0.000,     0.000,   3,   1,1.03979,  -2.1638,   5
  1511,'BRINNY      ', 110.0000,1,     0.000,     0.000,   3,   1,1.03980,  -2.1634,   5
  1541,'BANOGE      ', 110.0000,1,     0.000,     0.000,   6,   1,1.05198, -10.3224,   1
  1571,'BUNBEG      ', 110.0000,1,     0.000,     0.000,   9,   1,1.00190, -11.6518,   2
  1581,'CABRA       ', 110.0000,1,     0.000,     0.000,   1,   2,1.03448,  -9.7250,   2
  1601,'CLASHAVO    ', 110.0000,1,     0.000,     0.000,   3,   1,1.05435,   0.1291,   1
  1602,'CLASHAVO    ', 220.0000,1,     0.000,     0.000,   3,   1,1.06121,   4.8495,   1
  1611,'CLONKEEN    ', 110.0000,1,     0.000,     0.000,   7,   1,1.06615,   0.5678,   1
  1621,'COOLROE     ', 110.0000,1,     0.000,     0.000,   3,   1,1.04417,  -0.8863,   1
  1631,'CORDERRY    ', 110.0000,1,     0.000,     0.000,   9,   1,1.06748,  -8.5240,   1
  1641,'CASHLA      ', 110.0000,1,     0.000,     0.000,   9,   1,1.06749,  -4.8425,   1
  1642,'CASHLA      ', 220.0000,1,     0.000,     0.000,   9,   1,1.06383,  -0.8153,   1
  1651,'CLAHANE     ', 110.0000,1,     0.000,     0.000,   7,   5,1.07420,   1.5513,   1
  1661,'CASTLEBA    ', 110.0000,1,     0.000,     0.000,   9,   1,1.05889, -10.9915,   1
  1681,'CARRIGAD    ', 110.0000,1,     0.000,     0.000,   3,   1,1.05047,  -0.4133,   1
  1691,'CENTRAL     ', 110.0000,1,     0.000,     0.000,   1,   1,1.02717, -11.3510,   1
  1701,'CATH_FAL    ', 110.0000,1,     0.000,     0.000,   9,   1,1.05000,  -9.5159,   1
  1711,'CROMCAST    ', 110.0000,1,     0.000,     0.000,   1,   1,1.06265,  -7.4805,   1
  1721,'CAHIR       ', 110.0000,1,     0.000,     0.000,   5,   1,1.04804,  -9.5032,   1
  1731,'CROMCAST    ', 110.0000,1,     0.000,     0.000,   1,   1,1.06265,  -7.4805,   1
  1741,'CARRICKM    ', 110.0000,1,     0.000,     0.000,   2,   2,1.02734, -11.3378,   2
  1742,'CARRICKM    ', 220.0000,1,     0.000,     0.000,   2,   2,1.06638,  -5.2289,   1
  1751,'CARRICKM    ', 110.0000,1,     0.000,     0.000,   2,   1,1.06638,  -5.2289,   1
  1761,'CLIFF       ', 110.0000,1,     0.000,     0.000,   9,   1,1.05062,  -9.4221,   1
  1781,'CASTLEFA    ', 110.0000,1,     0.000,     0.000,   7,   3,1.07464,   2.9950,   5
  1791,'CASTLEFA    ', 110.0000,1,     0.000,     0.000,   7,   3,1.07463,   2.9939,   5
  1801,'COOKSTOW    ', 110.0000,1,     0.000,     0.000,   1,   2,1.05370,  -7.8638,   2
  1811,'COOKSTOW    ', 110.0000,1,     0.000,     0.000,   1,   1,1.01294, -12.3386,   1
  1821,'CLOON       ', 110.0000,1,     0.000,     0.000,   9,   1,1.06200,  -7.4258,   1
  1831,'CAMUS       ', 110.0000,1,     0.000,     0.000,   9,   1,1.04850,  -6.3495,   2
  1841,'CRANE       ', 110.0000,1,     0.000,     0.000,   6,   1,1.05240,  -9.8809,   1
  1851,'CHERRYWO    ', 110.0000,1,     0.000,     0.000,   2,   1,1.02517, -11.4444,   1
  1861,'CARICKON    ', 110.0000,1,     0.000,     0.000,   9,   1,1.06472,  -9.0466,   1
  1871,'COLLEGE     ', 110.0000,1,     0.000,     0.000,   2,   1,1.06405,  -8.0176,   1
  1881,'CHARLEVI    ', 110.0000,1,     0.000,     0.000,   3,   1,1.01368,  -2.7609,   1
  1901,'CARLOW      ', 110.0000,1,     0.000,     0.000,   6,   1,1.04926, -11.5297,   1
  1921,'COW CROS    ', 110.0000,1,     0.000,     0.000,   3,   1,1.04756,  -0.4839,   1
  1931,'CUNGHILL    ', 110.0000,1,     0.000,     0.000,   9,   1,1.07394, -10.0834,   4
  1941,'CUSHALIN    ', 110.0000,1,     0.000,     0.000,   8,   1,1.06487,  -8.7872,   1
  1951,'CARROWBE    ', 110.0000,1,     0.000,     0.000,   9,   1,1.04539, -11.7421,   1
  1961,'CASTLEVI    ', 110.0000,1,     0.000,     0.000,   3,   1,1.04675,  -0.1337,   1
  1971,'COOMAGEA    ', 110.0000,1,     0.000,     0.000,   7,   1,1.06832,   0.8151,   4
  1981,'CORRACLA    ', 110.0000,1,     0.000,     0.000,   9,   1,1.05494, -11.5746,   1
  1991,'CASTLEDO    ', 110.0000,1,     0.000,     0.000,   6,   1,1.05466,  -9.0122,   1
  2001,'CULLENAG    ', 110.0000,1,     0.000,     0.000,   5,   1,1.06074,  -9.5965,   1
  2002,'CULLENAG    ', 220.0000,1,     0.000,     0.000,   5,   1,1.00509,  -6.7642,   1
  2021,'CITY WES    ', 110.0000,1,     0.000,     0.000,   1,   1,1.05284,  -7.9067,   2
  2031,'CHARLESL    ', 110.0000,1,     0.000,     0.000,   6,   1,1.03008, -11.7577,   1
  2041,'CORDUFF     ', 110.0000,1,     0.000,     0.000,   2,   1,1.06487,  -7.9246,   1
  2042,'CORDUFF     ', 220.0000,1,     0.000,     0.000,   2,   1,1.07443,  -4.0964,   1
  2051,'CORDUFF     ', 110.0000,1,     0.000,     0.000,   2,   1,1.06487,  -7.9246,   1
  2081,'DUNKETTL    ', 110.0000,4,     0.000,     0.000,   3,   1,1.00000,   0.0000,   5
  2101,'DUNDALK     ', 110.0000,1,     0.000,     0.000,  10,   1,1.05217,  -9.9358,   2
  2121,'DRUMLINE    ', 110.0000,1,     0.000,     0.000,   4,   1,1.03432,  -4.4587,   1
  2141,'DUNGARVA    ', 110.0000,1,     0.000,     0.000,   5,   1,1.04827,  -6.6270,   1
  2161,'DOON        ', 110.0000,1,     0.000,     0.000,   5,   1,1.04027, -10.7042,   1
  2181,'DRYBRIDG    ', 110.0000,1,     0.000,     0.000,  10,   1,1.03256, -10.8528,   1
  2202,'DUNSTOWN    ', 220.0000,1,     0.000,     0.000,   2,   7,1.06766,  -4.5291,   1
  2204,'DUNSTOWN    ', 380.0000,1,     0.000,     0.000,   2,   1,1.02089,  -1.2564,   1
  2221,'DUNMANWA    ', 110.0000,1,     0.000,     0.000,   3,   1,1.04099,  -1.4972,   1
  2231,'DERRYBRI    ', 110.0000,1,     0.000,     0.000,   4,   1,1.06919,  -4.4105,   2
  2241,'DALLOW      ', 110.0000,1,     0.000,     0.000,   5,   1,1.05460,  -7.1113,   2
  2251,'DARDISTO    ', 110.0000,1,     0.000,     0.000,   1,   1,1.06304,  -7.4757,   1
  2261,'DERRYIRO    ', 110.0000,1,     0.000,     0.000,   8,   1,1.03932,  -9.6362,   1
  2281,'DALTON      ', 110.0000,1,     0.000,     0.000,   9,   1,1.05666,  -9.7663,   1
  2301,'DUNFIRTH    ', 110.0000,1,     0.000,     0.000,   8,   1,1.04203,  -9.1581,   2
  2321,'DRUMKEEN    ', 110.0000,1,     0.000,     0.000,   9,   1,1.03253, -10.1451,   1
  2361,'ENNIS       ', 110.0000,1,     0.000,     0.000,   4,   1,1.03525,  -4.8246,   1
  2481,'FASS EAS    ', 110.0000,1,     0.000,     0.000,   2,   2,1.01892, -11.7787,   2
  2491,'FASS WES    ', 110.0000,1,     0.000,     0.000,   2,   2,1.01933, -11.7572,   2
  2521,'FLAGFORD    ', 110.0000,1,     0.000,     0.000,   9,   1,1.06625,  -8.8961,   1
  2522,'FLAGFORD    ', 220.0000,1,     0.000,     0.000,   9,   7,1.06219,  -6.1308,   1
  2531,'FINNSTOW    ', 110.0000,1,     0.000,     0.000,   1,   1,1.06115,  -7.3118,   1
  2532,'FINNSTOW    ', 220.0000,1,     0.000,     0.000,   2,   1,1.06940,  -5.4072,   1
  2541,'FRN ST A    ', 110.0000,1,     0.000,     0.000,   1,   2,1.05984,  -9.0619,   2
  2551,'FRN ST B    ', 110.0000,1,     0.000,     0.000,   1,   2,1.05352,  -7.8577,   2
  2561,'FIN_URBA    ', 110.0000,1,     0.000,     0.000,   2,   2,1.03944,  -9.3875,   1
  2562,'FINGLAS     ', 220.0000,1,     0.000,     0.000,   2,   7,1.07500,  -4.2472,   1
  2571,'FIN_RURA    ', 110.0000,1,     0.000,     0.000,   2,   2,1.06273,  -7.4362,   1
  2581,'FIN_SUBU    ', 110.0000,1,     0.000,     0.000,   2,   1,1.06389,  -8.0476,   1
  2591,'FIN_OPEN    ', 110.0000,1,     0.000,     0.000,   2,   1,1.07500,  -4.2472,   2
  2671,'GARVAGH     ', 110.0000,1,     0.000,     0.000,   9,   1,1.07254,  -8.3388,   4
  2681,'GILRA       ', 110.0000,1,     0.000,     0.000,   9,   3,1.06752,  -9.1898,   2
  2701,'GLASMORE    ', 110.0000,1,     0.000,     0.000,   1,   2,1.03813,  -8.4877,   2
  2721,'GRIFFINR    ', 110.0000,1,     0.000,     0.000,   2,   2,1.04434,  -8.9013,   2
  2731,'GLANLEE     ', 110.0000,1,     0.000,     0.000,   7,   5,1.06840,   0.8316,   4
  2741,'GREAT IS    ', 110.0000,1,     0.000,     0.000,   6,   1,1.06180, -10.6829,   1
  2742,'GREAT IS    ', 220.0000,1,     0.000,     0.000,   6,   7,1.00229,  -7.7959,   1
  2761,'GRANGE      ', 110.0000,1,     0.000,     0.000,   1,   2,1.06138,  -7.5198,   2
  2771,'GARROW      ', 110.0000,1,     0.000,     0.000,   7,   1,1.06929,   0.6335,   7
  2781,'GALWAY      ', 110.0000,1,     0.000,     0.000,   9,   1,1.05113,  -5.6567,   1
  2801,'GOLAGH      ', 110.0000,1,     0.000,     0.000,   9,   1,1.04097,  -9.7689,   4
  2821,'GORTAWEE    ', 110.0000,1,     0.000,     0.000,   9,   1,1.05495, -11.9499,   1
  2841,'GORMAN      ', 110.0000,1,     0.000,     0.000,  10,   1,1.04137, -10.5818,   1
  2842,'GORMAN      ', 220.0000,1,     0.000,     0.000,  10,   1,1.05467,  -6.7776,   1
  2852,'GLANAGOW    ', 220.0000,1,     0.000,     0.000,   3,   1,1.07548,   2.4125,   1
  2861,'GRANGE C    ', 110.0000,1,     0.000,     0.000,   1,   1,1.06089,  -7.3277,   2
  2881,'GLENLARA    ', 110.0000,1,     0.000,     0.000,   3,   1,1.00337,  -2.5866,   2
  2941,'HAROLDS     ', 110.0000,1,     0.000,     0.000,   1,   2,1.06003,  -9.0422,   2
  2951,'HEUSTON     ', 110.0000,1,     0.000,     0.000,   1,   1,1.05393,  -7.8384,   1
  2962,'HUNTSTOW    ', 220.0000,1,     0.000,     0.000,   2,   1,1.07556,  -4.1474,   4
  2972,'HUNTSTOW    ', 220.0000,1,     0.000,     0.000,   2,   1,1.07569,  -3.7435,   4
  2981,'HARNETTS    ', 110.0000,1,     0.000,     0.000,   3,   1,1.04961,  -0.4717,   2
  3061,'INISCARR    ', 110.0000,1,     0.000,     0.000,   3,   1,1.04680,  -0.7678,   1
  3081,'INCH_CIT    ', 110.0000,1,     0.000,     0.000,   1,   2,1.05466,  -7.7900,   2
  3082,'INCHICOR    ', 220.0000,1,     0.000,     0.000,   2,   2,1.07335,  -5.3206,   1
  3091,'INCH_COU    ', 110.0000,1,     0.000,     0.000,   1,   1,1.06300,  -7.1475,   2
  3101,'IKERRIN     ', 110.0000,1,     0.000,     0.000,   5,   1,1.03574, -10.6016,   2
  3122,'IRISHTOW    ', 220.0000,1,     0.000,     0.000,   2,   1,1.07500,  -4.5039,   1
  3201,'KNOCKRAH    ', 110.0000,1,     0.000,     0.000,   3,   1,1.05069,   0.2797,   1
  3202,'KNOCKRAH    ', 220.0000,1,     0.000,     0.000,   3,   7,1.06117,   6.7547,   1
  3211,'KNOCKRAH    ', 110.0000,1,     0.000,     0.000,   3,   1,1.05069,   0.2797,   1
  3212,'KNOCKRAH    ', 220.0000,1,     0.000,     0.000,   3,   1,1.05590,   0.1865,   1
  3221,'KILBARRY    ', 110.0000,1,     0.000,     0.000,   3,   1,1.03484,  -1.2324,   1
  3241,'KILTEEL     ', 110.0000,1,     0.000,     0.000,   8,   1,1.03366, -10.9729,   2
  3261,'KILKENNY    ', 110.0000,1,     0.000,     0.000,   6,   1,1.01815, -14.0539,   1
  3281,'KILLONAN    ', 110.0000,1,     0.000,     0.000,   7,   1,1.04744,  -2.0042,   1
  3282,'KILLONAN    ', 220.0000,1,     0.000,     0.000,   7,   7,1.04729,   1.1583,   1
  3301,'KNOCKERA    ', 110.0000,1,     0.000,     0.000,   7,   1,1.05343,  -0.2811,   1
  3321,'KNOCKUMB    ', 110.0000,1,     0.000,     0.000,  10,   3,1.03421, -11.1757,   5
  3341,'KELLIS      ', 110.0000,1,     0.000,     0.000,   6,   1,1.05577, -11.3022,   1
  3342,'KELLIS      ', 220.0000,1,     0.000,     0.000,   6,   1,1.01707,  -7.6179,   1
  3361,'KILTOY      ', 110.0000,1,     0.000,     0.000,   9,   3,1.02617, -10.6844,   5
  3381,'KINNEGAD    ', 110.0000,1,     0.000,     0.000,   8,   1,1.03825,  -9.6609,   1
  3401,'KILLOTER    ', 110.0000,1,     0.000,     0.000,   5,   1,1.05391, -10.6081,   1
  3421,'KILMORE     ', 110.0000,1,     0.000,     0.000,   1,   1,1.06263,  -7.4801,   2
  3431,'KILMAHUD    ', 110.0000,1,     0.000,     0.000,   1,   1,1.06061,  -7.3442,   1
  3441,'KILMURRY    ', 110.0000,1,     0.000,     0.000,   6,   1,1.05238, -11.2994,   1
  3501,'LANESBOR    ', 110.0000,1,     0.000,     0.000,   9,   1,1.07419,  -8.3429,   1
  3521,'LOUTH       ', 110.0000,1,     0.000,     0.000,  10,   1,1.07614,  -9.0605,   1
  3522,'LOUTH       ', 220.0000,1,     0.000,     0.000,  10,   7,1.05603,  -6.0558,   1
  3541,'LIMERICK    ', 110.0000,1,     0.000,     0.000,   7,   1,1.04106,  -2.1065,   1
  3561,'LISDRUM     ', 110.0000,1,     0.000,     0.000,  10,   1,1.06430, -11.6083,   1
  3572,'LONGPOIN    ', 220.0000,1,     0.000,     0.000,   3,   1,1.07500,  11.1278,   1
  3581,'LETTERKE    ', 110.0000,1,     0.000,     0.000,   9,   1,1.02616, -10.6841,   1
  3601,'LIBERTY     ', 110.0000,1,     0.000,     0.000,   3,   1,1.03506,  -1.4100,   2
  3611,'LIBERTY     ', 110.0000,1,     0.000,     0.000,   3,   1,1.03540,  -1.4026,   2
  3621,'LISHEEN     ', 110.0000,1,     0.000,     0.000,   5,   1,1.03320, -12.0926,   5
  3641,'LODGEWOO    ', 110.0000,1,     0.000,     0.000,   6,   1,1.05321,  -9.0600,   1
  3642,'LODGEWOO    ', 220.0000,1,     0.000,     0.000,   6,   1,1.02100,  -7.9848,   1
  3751,'MISERY H    ', 110.0000,1,     0.000,     0.000,   1,   1,1.06065,  -8.9824,   2
  3761,'MACETOWN    ', 110.0000,1,     0.000,     0.000,   1,   2,1.06292,  -8.0983,   1
  3781,'MCDERMOT    ', 110.0000,1,     0.000,     0.000,   1,   2,1.03460,  -9.7118,   2
  3801,'MIDLETON    ', 110.0000,1,     0.000,     0.000,   3,   1,1.04218,  -0.2727,   1
  3821,'MEATH HI    ', 110.0000,1,     0.000,     0.000,  10,   1,1.04998, -10.1436,   2
  3841,'MAYNOOTH    ', 110.0000,1,     0.000,     0.000,   2,   2,1.04713,  -8.7475,   1
  3842,'MAYNOOTH    ', 220.0000,1,     0.000,     0.000,   2,   7,1.06497,  -5.6232,   1
  3851,'MAYNOOTH    ', 110.0000,1,     0.000,     0.000,   2,   2,1.05316,  -8.0257,   1
  3852,'MAYNOOTH    ', 220.0000,1,     0.000,     0.000,   2,   2,1.06813,  -5.1070,   1
  3861,'MILLTOWN    ', 110.0000,1,     0.000,     0.000,   1,   2,1.06145,  -8.9109,   2
  3871,'MILLTOWN    ', 110.0000,1,     0.000,     0.000,   1,   2,1.05058,  -8.0222,   2
  3881,'MACROOM     ', 110.0000,1,     0.000,     0.000,   3,   1,1.05060,  -0.3977,   1
  3901,'MONETEEN    ', 110.0000,1,     0.000,     0.000,   7,   1,1.04515,  -1.1932,   1
  3934,'MNYPG1      ', 380.0000,1,     0.000,     6.000,   4,   1,1.07500,   4.5969,   1
  3941,'MONEYPOI    ', 110.0000,1,     0.000,     0.000,   4,   1,1.02974,  -4.3199,   1
  3942,'MONEYPOI    ', 220.0000,1,     0.000,     0.000,   7,   1,1.06804,   5.5411,   1
  3944,'MNYPG3      ', 380.0000,1,     0.000,     6.000,   4,   1,1.07500,   4.5969,   1
  3954,'MNYPG2      ', 380.0000,1,     0.000,     6.000,   7,   1,1.07500,   9.8889,   1
  3961,'MARINA      ', 110.0000,1,     0.000,     0.000,   3,   1,1.03555,  -1.3911,   1
  3981,'MUNGRET     ', 110.0000,1,     0.000,     0.000,   7,   3,1.04490,  -1.2072,   5
  3991,'MUNGRET     ', 110.0000,1,     0.000,     0.000,   7,   3,1.04490,  -1.2065,   5
  4001,'MULLINGA    ', 110.0000,1,     0.000,     0.000,   9,   1,1.02662, -10.5359,   1
  4021,'MALLOW      ', 110.0000,1,     0.000,     0.000,   3,   1,1.01656,  -2.4344,   1
  4041,'MOY         ', 110.0000,1,     0.000,     0.000,   9,   1,1.07423, -11.8069,   1
  4061,'MULLAGHA    ', 110.0000,1,     0.000,     0.000,  10,   1,1.05662,  -9.8445,   2
  4071,'MEENTYCA    ', 110.0000,1,     0.000,     0.000,   9,   1,1.03463,  -9.8689,   4
  4081,'MONREAD     ', 110.0000,1,     0.000,     0.000,   8,   1,1.02773, -11.2440,   1
  4201,'NEWBRIDG    ', 110.0000,1,     0.000,     0.000,   8,   1,1.02602, -11.0232,   1
  4211,'NORTH QU    ', 110.0000,1,     0.000,     0.000,   1,   1,1.06183,  -8.8873,   2
  4221,'NAVAN       ', 110.0000,1,     0.000,     0.000,  10,   1,1.03841, -10.9535,   1
  4242,'NORTH WA    ', 220.0000,1,     0.000,     0.000,   2,   2,1.07700,  -4.1864,   1
  4261,'NENAGH      ', 110.0000,1,     0.000,     0.000,   7,   1,1.01345,  -3.3755,   2
  4281,'NANGOR      ', 110.0000,1,     0.000,     0.000,   1,   1,1.06069,  -7.3392,   2
  4341,'OLDCOURT    ', 110.0000,1,     0.000,     0.000,   3,   3,1.04755,  -0.4850,   5
  4351,'OLDCOURT    ', 110.0000,1,     0.000,     0.000,   3,   3,1.04756,  -0.4840,   5
  4361,'OUGHTRAG    ', 110.0000,1,     0.000,     0.000,   7,   1,1.04669,  -0.3469,   2
  4371,'OUNAGH      ', 110.0000,1,     0.000,     0.000,   9,   1,1.07500, -10.8285,   1
  4382,'OLDSTREE    ', 220.0000,1,     0.000,     0.000,   4,   1,1.07090,   3.4898,   1
  4384,'OLDSTREE    ', 380.0000,1,     0.000,     0.000,   4,   1,1.06392,   2.6570,   1
  4401,'POPPINTR    ', 110.0000,1,     0.000,     0.000,   1,   1,1.06241,  -7.4749,   2
  4441,'POLLAPHU    ', 110.0000,1,     0.000,     0.000,   6,   1,1.06850, -11.7789,   1
  4461,'POOLBEG     ', 110.0000,1,     0.000,     0.000,   1,   1,1.06276,  -8.7528,   2
  4462,'POOLBEG     ', 220.0000,1,     0.000,     0.000,   2,   2,1.07710,  -4.1586,   1
  4471,'POOLBEG     ', 110.0000,1,     0.000,     0.000,   1,   1,1.06275,  -8.7562,   2
  4472,'POOLBEG     ', 220.0000,1,     0.000,     0.000,   2,   2,1.07500,  -5.3733,   1
  4481,'PORTLAOI    ', 110.0000,1,     0.000,     0.000,   8,   1,1.03357, -10.7276,   1
  4491,'PELLETST    ', 110.0000,1,     0.000,     0.000,   1,   1,1.03558,  -9.6396,   1
  4501,'PLATIN      ', 110.0000,1,     0.000,     0.000,  10,   3,1.03321, -10.8169,   1
  4511,'POTTERY     ', 110.0000,1,     0.000,     0.000,   1,   1,1.02659, -11.4172,   2
  4522,'PROSPECT    ', 220.0000,1,     0.000,     0.000,   7,   1,1.06918,   4.4166,   1
  4621,'RYEBROOK    ', 110.0000,1,     0.000,     0.000,   2,   3,1.04684,  -8.7395,   1
  4651,'RINGSEND    ', 110.0000,1,     0.000,     0.000,   1,   2,1.06220,  -8.8671,   2
  4681,'RATHKEAL    ', 110.0000,1,     0.000,     0.000,   7,   1,1.04911,  -0.3185,   1
  4701,'RICHMOND    ', 110.0000,1,     0.000,     0.000,   9,   1,1.06652,  -8.7358,   2
  4711,'RICHMOND    ', 110.0000,1,     0.000,     0.000,   9,   1,1.06639,  -8.7401,   2
  4721,'RAFFEEN     ', 110.0000,1,     0.000,     0.000,   3,   1,1.04983,  -0.5504,   1
  4722,'RAFFEEN     ', 220.0000,1,     0.000,     0.000,   3,   1,1.07241,   1.9279,   1
  4731,'RAFFEENB    ', 110.0000,1,     0.000,     0.000,   3,   1,1.05259,  -0.9542,   1
  4741,'RINAWADE    ', 110.0000,1,     0.000,     0.000,   2,   3,1.04854,  -8.3990,   1
  4761,'RINGASKI    ', 110.0000,1,     0.000,     0.000,   3,   1,1.05225,  -0.9727,   2
  4781,'RATRUSSA    ', 110.0000,1,     0.000,     0.000,  10,   1,1.07500, -10.4262,   1
  4931,'STAPOLIN    ', 110.0000,1,     0.000,     0.000,   1,   1,1.06337,  -7.4349,   1
  4941,'SHANNONB    ', 110.0000,1,     0.000,     0.000,   5,   1,1.07500,  -5.8091,   1
  4942,'SHANNONB    ', 220.0000,1,     0.000,     0.000,   5,   1,1.06390,  -3.1179,   1
  4951,'SALTHILL    ', 110.0000,1,     0.000,     0.000,   9,   1,1.04926,  -5.8197,   1
  4961,'SHANKILL    ', 110.0000,1,     0.000,     0.000,  10,   1,1.06267, -11.7223,   1
  4971,'SOUTHGRE    ', 110.0000,1,     0.000,     0.000,   8,   1,1.02529, -11.1465,   1
  4981,'SLIGO       ', 110.0000,1,     0.000,     0.000,   9,   1,1.05933,  -9.6926,   1
  4991,'SORNE HI    ', 110.0000,1,     0.000,     0.000,   9,   1,1.02228, -10.0154,   2
  5001,'SOMERSET    ', 110.0000,1,     0.000,     0.000,   9,   1,1.06243,  -6.0609,   2
  5022,'SHELLYBA    ', 220.0000,1,     0.000,     0.000,   2,   7,1.07720,  -4.1527,   1
  5031,'STEVENST    ', 110.0000,1,     0.000,     0.000,   1,   1,1.04444,  -8.3841,   2
  5041,'SRANANAG    ', 110.0000,1,     0.000,     0.000,   9,   1,1.06250,  -9.0456,   1
  5042,'SRANANAG    ', 220.0000,1,     0.000,     0.000,   9,   1,1.06147,  -7.3861,   1
  5051,'SEAL ROC    ', 110.0000,1,     0.000,     0.000,   7,   1,1.07562,   3.0515,   4
  5061,'STRATFOR    ', 110.0000,1,     0.000,     0.000,   6,   1,1.04825, -12.1095,   2
  5071,'SEAL ROC    ', 110.0000,1,     0.000,     0.000,   7,   1,1.07562,   3.0515,   4
  5091,'SINGLAND    ', 110.0000,1,     0.000,     0.000,   7,   1,1.04590,  -2.4135,   1
  5122,'SHELLYBA    ', 220.0000,1,     0.000,     0.000,   2,   2,1.07564,  -4.4309,   1
  5131,'TANEY       ', 110.0000,1,     0.000,     0.000,   1,   1,1.05029,  -8.0564,   2
  5141,'TARBERT     ', 110.0000,1,     0.000,     0.000,   7,   1,1.07196,   2.5395,   1
  5142,'TARBERT     ', 220.0000,1,     0.000,     0.000,   7,   1,1.06905,   3.9402,   1
  5144,'TARBERT     ', 380.0000,1,     0.000,     0.000,   7,   1,1.07520,   4.5805,   1
  5172,'TYNAGH      ', 220.0000,1,     0.000,     0.000,   4,   1,1.07500,   3.8547,   1
  5181,'TRABEG      ', 110.0000,1,     0.000,     0.000,   3,   1,1.03639,  -1.4102,   1
  5191,'TIEVEBRA    ', 110.0000,1,     0.000,     0.000,   9,   1,1.01877, -10.6993,   1
  5202,'TURLOUGH    ', 220.0000,1,     0.000,     0.000,   2,   1,1.07153,  -3.8530,   1
  5221,'TULLABRA    ', 110.0000,1,     0.000,     0.000,   4,   1,1.02862,  -4.4622,   2
  5231,'TRINITY     ', 110.0000,1,     0.000,     0.000,   1,   1,1.06014,  -9.0234,   1
  5241,'TAWN_A      ', 110.0000,1,     0.000,     0.000,   9,   3,1.07427, -11.8079,   2
  5251,'TAWN_B      ', 110.0000,1,     0.000,     0.000,   9,   3,1.07427, -11.8079,   2
  5261,'TRIEN       ', 110.0000,1,     0.000,     0.000,   7,   1,1.07664,   1.9025,   1
  5281,'TRALEE      ', 110.0000,1,     0.000,     0.000,   7,   1,1.06454,   0.8395,   1
  5301,'THURLES     ', 110.0000,1,     0.000,     0.000,   5,   1,1.03828, -11.7814,   1
  5321,'THORNSBE    ', 110.0000,1,     0.000,     0.000,   8,   1,1.03404,  -9.9996,   2
  5341,'TONROE      ', 110.0000,1,     0.000,     0.000,   9,   1,1.05694, -10.0607,   2
  5361,'TRILLICK    ', 110.0000,1,     0.000,     0.000,   9,   1,1.02030, -10.1538,   2
  5381,'TIPPERAR    ', 110.0000,1,     0.000,     0.000,   5,   1,1.03839,  -7.0206,   1
  5441,'WATERFOR    ', 110.0000,1,     0.000,     0.000,   5,   1,1.05548, -10.6121,   1
  5462,'WOODLAND    ', 220.0000,1,     0.000,     0.000,   2,   1,1.07521,  -3.9874,   1
  5464,'WOODLAND    ', 380.0000,1,     0.000,     0.000,   2,   1,1.02760,  -0.5383,   1
  5481,'WHITEGAT    ', 110.0000,1,     0.000,     0.000,   3,   3,1.05290,  -0.0368,   1
  5492,'WMD_220     ', 220.0000,1,     0.000,     0.000,   7,   1,1.05603,   0.5218,   1
  5494,'WMD_400     ', 380.0000,1,     0.000,     0.000,   7,   1,1.05679,   1.7567,   1
  5501,'WEXFORD     ', 110.0000,1,     0.000,     0.000,   6,   1,1.04351, -11.3324,   1
  5521,'WOLFE TO    ', 110.0000,1,     0.000,     0.000,   1,   1,1.03425,  -9.7330,   2
 10204,'ARDNACRU    ',  38.0000,2,     0.000,     0.000,   4,   5,1.03609,  -4.7495,   2
 10205,'ARDNACRU    ',  38.0000,1,     0.000,     0.000,   4,   1,1.02367, -16.0734,   2
 10261,'ARDNACRU    ', 110.0000,1,     0.000,     0.000,   4,   1,1.04512,  -2.8536,   1
 10271,'ARDNG1      ',  10.5000,2,     0.000,     0.000,   4,   1,1.00068,   1.2795,   3
 10272,'ARDNG2      ',  10.5000,2,     0.000,     0.000,   4,   1,1.00609,   1.7929,   3
 10273,'ARDNG3      ',  10.5000,2,     0.000,     0.000,   4,   1,1.01885,   0.9142,   3
 10274,'ARDNG4      ',  10.5000,2,     0.000,     0.000,   4,   1,1.00002,   1.1291,   3
 10401,'AGHADA      ',  10.0000,1,     0.000,     0.000,   3,   1,1.01437,   0.1117,   3
 10471,'AGH_G1      ',  20.0000,2,     0.000,     0.000,   3,   1,1.01139,  16.1691,   3
 10472,'AGH_G11     ',  10.5000,2,     0.000,     0.000,   3,   1,1.00000,   2.3186,   3
 10473,'AGH_G12     ',  10.5000,2,     0.000,     0.000,   3,   1,1.00000,   2.3186,   3
 10474,'AGH_G14     ',  10.5000,2,     0.000,     0.000,   3,   1,1.00000,   2.3186,   3
 10475,'AGH_PEAK    ',  10.5000,2,     0.000,     0.000,   3,   1,1.00055,   0.1117,   3
 10602,'ARIGNA      ',  20.0000,2,     0.000,     0.000,   9,   5,1.04239,  -8.9455,   2
 10619,'ARIGNA_T    ', 110.0000,1,     0.000,     0.000,   9,   1,1.06470,  -8.7433,   1
 10801,'AHANE       ',  11.0000,1,     0.000,     0.000,   7,   1,1.05944,  -3.4787,   2
 10901,'ADAMSTOW    ',  10.0000,1,     0.000,     0.000,   1,   1,1.04707,  -9.3905,   2
 11201,'ARKLOW      ',  10.0000,1,     0.000,     0.000,   6,   1,1.04292, -10.8187,   1
 11204,'ARKLOW      ',  38.0000,2,     0.000,     0.000,   6,   5,1.04899, -12.8550,   2
 11302,'ATHEA       ',  20.0000,1,     0.000,     0.000,   7,   5,1.00475,   3.5544,   4
 11371,'ATHEA       ',   1.0000,2,     0.000,     0.000,   7,   5,0.99496,   3.8947,   4
 11402,'LEABEG      ',  20.0000,2,     0.000,     0.000,   9,   5,1.00976, -13.7721,   1
 11404,'ATHLONE     ',  38.0000,1,     0.000,     0.000,   9,   1,1.02930, -14.0566,   2
 11461,'ATH_CAP     ', 110.0000,1,     0.000,     0.000,   9,   1,1.07895,  -7.6738,   1
 12001,'ARTANE      ',  10.0000,1,     0.000,     0.000,   1,   1,1.03502, -12.2113,   2
 12202,'ATHY        ',  20.0000,1,     0.000,     0.000,   8,   1,1.03674, -22.9178,   2
 12302,'BALLYWAT    ',  20.0000,1,     0.000,     0.000,   6,   1,1.01738,  -7.6924,   4
 12371,'BALLYWAT    ',   0.4000,2,     0.000,     0.000,   6,   5,1.03091,  -6.8162,   4
 12402,'BALLYCUM    ',  20.0000,1,     0.000,     0.000,   7,   1,1.03862,  -4.9807,   2
 12502,'BOOLTIAG    ',  20.0000,1,     0.000,     0.000,   4,   1,1.01512,  -3.2613,   4
 12571,'BOOLTIAG    ',   0.6900,2,     0.000,     0.000,   4,   5,1.02525,  -2.3844,   4
 12702,'BALTRASN    ',  20.0000,1,     0.000,     0.000,  10,   1,1.03652, -16.0483,   2
 12804,'BALLYLIC    ',  38.0000,2,     0.000,     0.000,   3,   5,1.02931,  -2.2507,   2
 13001,'BALLYBEG    ',  10.0000,1,     0.000,     0.000,   6,   1,1.05068, -13.3891,   2
 13204,'BLAKE       ',  38.0000,1,     0.000,     0.000,   8,   1,1.03835, -17.7543,   2
 13219,'BLAKE T     ', 110.0000,1,     0.000,     0.000,   8,   1,1.02333, -10.6093,   1
 13302,'BALLYCAD    ',  20.0000,2,     0.000,     0.000,   6,   1,1.00000,  -9.8783,   2
 13312,'BALLYCAD    ',  20.0000,2,     0.000,     0.000,   6,   1,1.02515,  -7.9857,   1
 13404,'BINBANE     ',  38.0000,2,     0.000,     0.000,   9,   5,1.03732, -11.1355,   2