<!DOCTYPE HTML PUBLIC "-//W3C//DTD HTML 4.0 Transitional//EN">
<!-- saved from url=(0069)http://www.eirgrid.com/EirgridPortal/uploads/Publications/s04_web.raw -->
<HTML><HEAD>
<META http-equiv=Content-Type content="text/html; charset=windows-1252">
<META content="MSHTML 6.00.2900.3492" name=GENERATOR></HEAD>
<BODY><PRE>0,   100.00          / PSS/E-29.4    THU, JUL 22 2004  14:19
ESB NATIONAL GRID FORECAST STATEMENT 2004-2010
BASECASE SUMMER 2004
   10,'F_M_____',  38.0000,1,     0.000,     0.000,   1,   1,1.04094, -12.7842,   2
   11,'FMN_LOOP',  38.0000,1,     0.000,     0.000,   1,   1,1.04815, -10.2957,   2
   12,'BEDFORD ',  38.0000,1,     0.000,     0.000,   1,   1,1.03347, -13.3587,   2
   13,'M_R_____',  38.0000,1,     0.000,     0.000,   1,   1,1.05083, -13.3255,   2
   14,'F_I_____',  38.0000,1,     0.000,     0.000,   1,   1,1.03407, -13.2567,   2
   15,'I_M_____',  38.0000,1,     0.000,     0.000,   1,   1,1.05768, -12.4887,   2
 1021,'ARDNACRU', 110.0000,1,     0.000,     0.000,   7,   1,1.01200, -17.9315,   1
 1041,'AGHADA  ', 110.0000,1,     0.000,     0.000,   3,   1,1.06311, -15.7285,   1
 1042,'AGHADA  ', 220.0000,1,     0.000,     0.000,   3,   1,1.07000, -13.2870,   1
 1061,'ARIGNA  ', 110.0000,1,     0.000,     0.000,   9,   1,1.04170, -17.8182,   2
 1081,'AHANE   ', 110.0000,1,     0.000,     0.000,   7,   1,1.03001, -17.2954,   2
 1101,'ANNER   ', 110.0000,1,     0.000,     0.000,   5,   3,1.05047, -19.4417,   5
 1121,'ARKLOW  ', 110.0000,1,     0.000,     0.000,   6,   1,1.06007,  -9.3217,   1
 1122,'ARKLOW  ', 220.0000,1,     0.000,     0.000,   6,   1,1.05524,  -7.5927,   1
 1141,'ATHLONE ', 110.0000,1,     0.000,     0.000,   8,   1,1.06491, -17.1016,   1
 1161,'AUGHINIS', 110.0000,1,     0.000,     0.000,   7,   3,1.02411, -16.1257,   1
 1181,'ARVA    ', 110.0000,1,     0.000,     0.000,  10,   1,1.01518, -16.0787,   1
 1201,'ARTANE  ', 110.0000,1,     0.000,     0.000,   1,   1,1.05244,  -8.5339,   2
 1281,'BALLYLIC', 110.0000,1,     0.000,     0.000,   3,   1,1.04242, -18.7441,   2
 1301,'BALLYBEG', 110.0000,1,     0.000,     0.000,   6,   1,1.05963,  -8.6000,   1
 1321,'BLAKE   ', 110.0000,1,     0.000,     0.000,   8,   1,1.06437,  -6.9125,   2
 1341,'BINBANE ', 110.0000,1,     0.000,     0.000,   9,   1,0.99735, -22.3996,   2
 1361,'BALLYDIN', 110.0000,1,     0.000,     0.000,   5,   1,1.05005, -18.2394,   1
 1381,'BARNAHEL', 110.0000,1,     0.000,     0.000,   3,   1,1.06153, -16.9183,   1
 1401,'BELLACOR', 110.0000,1,     0.000,     0.000,   9,   1,1.05500, -20.1858,   1
 1421,'BLACKROC', 110.0000,1,     0.000,     0.000,   2,   2,1.06295,  -7.6694,   2
 1441,'BANDON  ', 110.0000,1,     0.000,     0.000,   3,   1,1.04778, -18.5724,   1
 1461,'BARRYMOR', 110.0000,1,     0.000,     0.000,   5,   1,1.05718, -18.0871,   2
 1481,'BUTLERST', 110.0000,1,     0.000,     0.000,   5,   1,1.04787, -15.7704,   1
 1501,'BRINNY  ', 110.0000,1,     0.000,     0.000,   3,   1,1.04764, -18.5808,   5
 1511,'BRINNY  ', 110.0000,1,     0.000,     0.000,   3,   1,1.04764, -18.5804,   5
 1581,'CABRA   ', 110.0000,1,     0.000,     0.000,   1,   2,1.05183,  -8.5601,   2
 1601,'CLASHAVO', 110.0000,1,     0.000,     0.000,   3,   1,1.05610, -16.6703,   1
 1602,'CLASHAVO', 220.0000,1,     0.000,     0.000,   3,   1,1.05458, -13.2780,   1
 1621,'COOLROE ', 110.0000,1,     0.000,     0.000,   3,   1,1.05437, -17.2857,   1
 1641,'CASHLA  ', 110.0000,1,     0.000,     0.000,   9,   1,1.05579, -14.5963,   1
 1642,'CASHLA  ', 220.0000,1,     0.000,     0.000,   9,   1,1.05496,  -9.6286,   1
 1661,'CASTLEBA', 110.0000,1,     0.000,     0.000,   9,   1,1.05644, -19.7981,   1
 1681,'CARRIGAD', 110.0000,1,     0.000,     0.000,   3,   1,1.05543, -17.2974,   1
 1701,'CATH_FAL', 110.0000,1,     0.000,     0.000,   9,   1,1.02000, -21.4409,   1
 1721,'CAHIR   ', 110.0000,1,     0.000,     0.000,   5,   1,1.05876, -19.9222,   1
 1741,'CARRICKM', 110.0000,1,     0.000,     0.000,   2,   2,1.06655,  -6.9395,   2
 1742,'CARRICKM', 220.0000,1,     0.000,     0.000,   2,   2,1.07041,  -3.9866,   1
 1761,'CLIFF   ', 110.0000,1,     0.000,     0.000,   9,   1,1.02064, -21.3969,   1
 1781,'CASTLEFA', 110.0000,1,     0.000,     0.000,   7,   3,1.02369, -16.1456,   5
 1791,'CASTLEFA', 110.0000,1,     0.000,     0.000,   7,   3,1.02369, -16.1456,   5
 1801,'COOKSTOW', 110.0000,1,     0.000,     0.000,   1,   2,1.04453,  -8.3023,   2
 1821,'CLOON   ', 110.0000,1,     0.000,     0.000,   9,   1,1.04645, -16.5643,   2
 1841,'CRANE   ', 110.0000,1,     0.000,     0.000,   6,   1,1.03852, -13.5365,   1
 1861,'CARRICK ', 110.0000,1,     0.000,     0.000,   9,   1,1.05238, -16.5631,   1
 1871,'COLLEGE ', 110.0000,1,     0.000,     0.000,   2,   1,1.05186,  -8.7639,   1
 1881,'CHARLEVI', 110.0000,1,     0.000,     0.000,   3,   1,1.02061, -18.2255,   1
 1901,'CARLOW  ', 110.0000,1,     0.000,     0.000,   8,   1,1.04805, -12.0825,   1
 1921,'COW CROS', 110.0000,1,     0.000,     0.000,   3,   1,1.06181, -16.7233,   1
 1931,'CUNGHILL', 110.0000,1,     0.000,     0.000,   9,   1,1.03947, -20.6135,   4
 1941,'CUSHALIN', 110.0000,1,     0.000,     0.000,   8,   1,1.07500,  -5.3311,   1
 1961,'CASTLEVI', 110.0000,1,     0.000,     0.000,   3,   1,1.06444, -16.6816,   1
 1981,'CORRACLA', 110.0000,1,     0.000,     0.000,   9,   1,1.01836, -18.9565,   1
 2001,'CULLENAG', 110.0000,1,     0.000,     0.000,   5,   1,1.05456, -15.6957,   1
 2002,'CULLENAG', 220.0000,1,     0.000,     0.000,   5,   1,1.04017, -13.0510,   1
 2021,'CITY WES', 110.0000,1,     0.000,     0.000,   1,   1,1.06678,  -8.0078,   2
 2081,'DUNKETTL', 110.0000,1,     0.000,     0.000,   3,   1,1.06444, -16.6816,   5
 2101,'DUNDALK ', 110.0000,1,     0.000,     0.000,  10,   1,1.04812, -10.8373,   1
 2121,'DRUMLINE', 110.0000,1,     0.000,     0.000,   7,   1,1.00056, -18.4434,   1
 2141,'DUNGARVA', 110.0000,1,     0.000,     0.000,   5,   1,1.04827, -16.6840,   1
 2161,'DOON    ', 110.0000,1,     0.000,     0.000,   5,   1,1.05105, -19.4085,   1
 2181,'DRYBRIDG', 110.0000,1,     0.000,     0.000,  10,   1,1.01003, -11.9982,   1
 2202,'DUNSTOWN', 220.0000,1,     0.000,     0.000,   2,   1,1.07322,  -4.2253,   1
 2204,'DUNSTOWN', 380.0000,1,     0.000,     0.000,   2,   1,1.03398,  -1.1278,   1
 2221,'DUNMANWA', 110.0000,1,     0.000,     0.000,   3,   1,1.04293, -18.7197,   1
 2241,'DALLOW  ', 110.0000,1,     0.000,     0.000,   5,   1,1.04801, -14.5817,   2
 2281,'DALTON  ', 110.0000,1,     0.000,     0.000,   9,   1,1.05562, -18.9220,   1
 2301,'DUNFIRTH', 110.0000,1,     0.000,     0.000,   2,   1,1.04928,  -8.9733,   2
 2361,'ENNIS   ', 110.0000,1,     0.000,     0.000,   7,   1,1.00636, -17.9753,   1
 2481,'FASS EAS', 110.0000,1,     0.000,     0.000,   2,   2,1.06217,  -7.1495,   2
 2491,'FASS WES', 110.0000,1,     0.000,     0.000,   2,   2,1.06203,  -7.1475,   2
 2521,'FLAGFORD', 110.0000,1,     0.000,     0.000,   9,   1,1.05674, -16.4177,   1
 2522,'FLAGFORD', 220.0000,1,     0.000,     0.000,   9,   1,1.01485, -11.6715,   1
 2541,'FRN ST A', 110.0000,1,     0.000,     0.000,   1,   2,1.06121,  -7.8106,   2
 2551,'FRN ST B', 110.0000,1,     0.000,     0.000,   1,   2,1.06631,  -8.0435,   2
 2561,'FIN_URBA', 110.0000,1,     0.000,     0.000,   2,   2,1.05373,  -8.3922,   1
 2562,'FINGLAS ', 220.0000,1,     0.000,     0.000,   2,   2,1.07299,  -4.0972,   1
 2571,'FIN_RURA', 110.0000,1,     0.000,     0.000,   2,   2,1.05624,  -8.1749,   1
 2681,'GILRA   ', 110.0000,1,     0.000,     0.000,   9,   3,1.05790, -16.7167,   2
 2701,'GLASMORE', 110.0000,1,     0.000,     0.000,   2,   2,1.04462,  -9.1052,   2
 2711,'GLASMORE', 110.0000,1,     0.000,     0.000,   2,   2,1.05636,  -8.1779,   2
 2721,'GRIFFINR', 110.0000,1,     0.000,     0.000,   2,   2,1.06055,  -8.1004,   2
 2731,'GRIFFINR', 110.0000,1,     0.000,     0.000,   2,   1,1.06079,  -8.0839,   2
 2741,'GREAT IS', 110.0000,1,     0.000,     0.000,   6,   1,1.05435, -14.7721,   1
 2742,'GREAT IS', 220.0000,1,     0.000,     0.000,   6,   1,1.03829, -11.8478,   1
 2761,'GRANGE  ', 110.0000,1,     0.000,     0.000,   1,   2,1.05540,  -8.3215,   2
 2781,'GALWAY  ', 110.0000,1,     0.000,     0.000,   9,   1,1.04509, -15.4310,   1
 2801,'GOLAGH  ', 110.0000,1,     0.000,     0.000,   9,   1,1.01141, -22.3785,   1
 2821,'GORTAWEE', 110.0000,1,     0.000,     0.000,   9,   1,1.01889, -18.4900,   1
 2861,'GRANGE C', 110.0000,1,     0.000,     0.000,   1,   1,1.06338,  -8.2893,   2
 2881,'GLENLARA', 110.0000,1,     0.000,     0.000,   3,   1,1.01223, -18.7185,   2
 2921,'HAULBOWL', 110.0000,1,     0.000,     0.000,   3,   3,1.06258, -16.8568,   5
 2931,'HAULBOWL', 110.0000,1,     0.000,     0.000,   3,   3,1.06154, -16.9185,   5
 2941,'HAROLDS ', 110.0000,1,     0.000,     0.000,   1,   2,1.06213,  -7.7472,   2
 2962,'HUNTSTOW', 220.0000,1,     0.000,     0.000,   2,   1,1.07330,  -3.9947,   1
 3061,'INISCARR', 110.0000,1,     0.000,     0.000,   3,   1,1.05528, -17.2937,   1
 3081,'INCHICOR', 110.0000,1,     0.000,     0.000,   1,   2,1.06843,  -7.8961,   2
 3082,'INCHICOR', 220.0000,1,     0.000,     0.000,   2,   2,1.07329,  -4.2829,   1
 3101,'IKERRIN ', 110.0000,1,     0.000,     0.000,   5,   1,1.03365, -19.4501,   2
 3122,'IRISHTOW', 220.0000,1,     0.000,     0.000,   2,   1,1.07374,  -3.5112,   1
 3201,'KNOCKRAH', 110.0000,1,     0.000,     0.000,   3,   1,1.06776, -16.5234,   1
 3202,'KNOCKRAH', 220.0000,1,     0.000,     0.000,   3,   1,1.05624, -14.1390,   1
 3221,'KILBARRY', 110.0000,1,     0.000,     0.000,   3,   1,1.05560, -17.1079,   1
 3241,'KILTEEL ', 110.0000,1,     0.000,     0.000,   8,   1,1.02898, -10.3299,   2
 3261,'KILKENNY', 110.0000,1,     0.000,     0.000,   8,   1,1.02255, -14.5731,   1
 3281,'KILLONAN', 110.0000,1,     0.000,     0.000,   7,   1,1.03043, -17.2636,   1
 3282,'KILLONAN', 220.0000,1,     0.000,     0.000,   7,   1,1.03700, -13.0236,   1
 3301,'KNOCKERA', 110.0000,1,     0.000,     0.000,   7,   1,1.02323, -17.2668,   1
 3321,'KNOCKUMB', 110.0000,1,     0.000,     0.000,  10,   3,0.98719, -13.8953,   5
 3341,'KELLIS  ', 110.0000,1,     0.000,     0.000,   8,   1,1.05262, -11.9174,   1
 3342,'KELLIS  ', 220.0000,1,     0.000,     0.000,   8,   1,1.04222,  -8.9660,   1
 3361,'KILTOY  ', 110.0000,1,     0.000,     0.000,   9,   3,0.99673, -24.4651,   5
 3371,'KILTOY  ', 110.0000,1,     0.000,     0.000,   9,   3,0.99664, -24.4706,   5
 3381,'KINNEGAD', 110.0000,1,     0.000,     0.000,   2,   1,1.04318,  -9.4435,   1
 3401,'KILLOTER', 110.0000,1,     0.000,     0.000,   5,   1,1.04847, -15.6778,   1
 3421,'KILMORE ', 110.0000,1,     0.000,     0.000,   1,   1,1.05565,  -8.2779,   2
 3501,'LANESBOR', 110.0000,1,     0.000,     0.000,   9,   1,1.04182, -16.7466,   1
 3521,'LOUTH   ', 110.0000,1,     0.000,     0.000,  10,   1,1.06313, -10.1130,   1
 3522,'LOUTH   ', 220.0000,2,     0.000,     0.000,  10,   1,1.03338,  -6.9642,   1
 3541,'LIMERICK', 110.0000,1,     0.000,     0.000,   7,   1,1.02017, -17.4847,   1
 3561,'LISDRUM ', 110.0000,1,     0.000,     0.000,  10,   1,1.01776, -13.2543,   1
 3581,'LETTERKE', 110.0000,1,     0.000,     0.000,   9,   1,0.99788, -24.3909,   1
 3601,'LIBERTY ', 110.0000,1,     0.000,     0.000,   3,   1,1.05663, -17.0008,   2
 3621,'LISHEEN ', 110.0000,1,     0.000,     0.000,   5,   1,1.03541, -20.9693,   1
 3761,'MACETOWN', 110.0000,1,     0.000,     0.000,   2,   2,1.05195,  -8.5332,   1
 3781,'MCDERMOT', 110.0000,1,     0.000,     0.000,   1,   2,1.05182,  -8.5662,   2
 3801,'MIDLETON', 110.0000,1,     0.000,     0.000,   3,   1,1.06022, -16.6146,   1
 3821,'MEATH HI', 110.0000,1,     0.000,     0.000,  10,   1,1.04713, -10.8562,   2
 3841,'MAYNOOTH', 110.0000,1,     0.000,     0.000,   2,   2,1.06165,  -7.9964,   1
 3842,'MAYNOOTH', 220.0000,1,     0.000,     0.000,   2,   2,1.06745,  -4.9267,   1
 3861,'MILLTOWN', 110.0000,1,     0.000,     0.000,   1,   2,1.06354,  -7.6011,   2
 3871,'MILLTOWN', 110.0000,1,     0.000,     0.000,   1,   2,1.06159,  -8.9574,   2
 3881,'MACROOM ', 110.0000,1,     0.000,     0.000,   3,   1,1.05116, -17.3807,   1
 3901,'MONETEEN', 110.0000,1,     0.000,     0.000,   7,   1,1.01882, -17.3921,   1
 3941,'MONEYPOI', 110.0000,1,     0.000,     0.000,   7,   1,1.00113, -18.1643,   1
 3942,'MONEYPOI', 220.0000,1,     0.000,     0.000,   7,   1,1.06916,  -7.0080,   1
 3944,'MNYPG1G3', 380.0000,1,     0.000,     6.000,   2,   1,1.07500,   3.5298,   1
 3954,'MNYPG2  ', 380.0000,1,     0.000,     6.000,   7,   1,1.07500,  -2.3333,   1
 3961,'MARINA  ', 110.0000,1,     0.000,     0.000,   3,   1,1.05700, -16.9732,   1
 3981,'MUNGRET ', 110.0000,1,     0.000,     0.000,   7,   3,1.01862, -17.4037,   5
 3991,'MUNGRET ', 110.0000,1,     0.000,     0.000,   7,   3,1.01862, -17.4031,   5
 4001,'MULLINGA', 110.0000,1,     0.000,     0.000,   9,   1,1.02317, -14.7909,   1
 4021,'MALLOW  ', 110.0000,1,     0.000,     0.000,   3,   1,1.03013, -18.0616,   1
 4041,'MOY     ', 110.0000,1,     0.000,     0.000,   9,   1,1.04859, -21.1713,   1
 4061,'MULLAGHA', 110.0000,1,     0.000,     0.000,  10,   1,1.05265, -10.6281,   2
 4081,'MONREAD ', 110.0000,1,     0.000,     0.000,   8,   1,1.02292, -10.9211,   1
 4201,'NEWBRIDG', 110.0000,1,     0.000,     0.000,   8,   1,1.01762, -11.5248,   1
 4221,'NAVAN   ', 110.0000,1,     0.000,     0.000,  10,   1,0.99088, -13.6657,   1
 4242,'NORTH WA', 220.0000,1,     0.000,     0.000,   2,   2,1.07519,  -4.1534,   1
 4281,'NANGOR  ', 110.0000,1,     0.000,     0.000,   1,   1,1.06314,  -8.3058,   1
 4341,'OLDCOURT', 110.0000,1,     0.000,     0.000,   3,   3,1.06182, -16.7234,   5
 4351,'OLDCOURT', 110.0000,1,     0.000,     0.000,   3,   3,1.06182, -16.7234,   5
 4361,'OUGHTRAG', 110.0000,1,     0.000,     0.000,   7,   1,1.02897, -16.5353,   2
 4382,'OLDSTREE', 220.0000,1,     0.000,     0.000,   9,   1,1.06385,  -4.5497,   1
 4384,'OLDSTREE', 380.0000,1,     0.000,     0.000,   9,   1,1.05286,  -0.7459,   1
 4441,'POLLAPHU', 110.0000,1,     0.000,     0.000,   8,   1,1.04523, -12.5181,   1
 4451,'POOLBEG ', 110.0000,1,     0.000,     0.000,   1,   1,1.06484,  -7.5278,   2
 4461,'POOLBEG ', 110.0000,1,     0.000,     0.000,   1,   1,1.06531,  -7.4199,   2
 4462,'POOLBEG ', 220.0000,1,     0.000,     0.000,   2,   2,1.07500,  -4.2377,   1
 4471,'POOLBEG ', 110.0000,1,     0.000,     0.000,   1,   1,1.06530,  -7.4232,   2
 4481,'PORTLAOI', 110.0000,1,     0.000,     0.000,   8,   1,1.03892, -11.1615,   1
 4501,'PLATIN  ', 110.0000,1,     0.000,     0.000,  10,   3,1.00892, -12.0111,   1
 4522,'PROSPECT', 220.0000,1,     0.000,     0.000,   7,   1,1.06731,  -8.2210,   1
 4621,'RYEBROOK', 110.0000,1,     0.000,     0.000,   2,   3,1.04859,  -8.8481,   1
 4651,'RINGSEND', 110.0000,1,     0.000,     0.000,   1,   2,1.06483,  -7.5276,   2
 4681,'RATHKEAL', 110.0000,1,     0.000,     0.000,   7,   1,1.03141, -15.6494,   1
 4701,'RICHMOND', 110.0000,1,     0.000,     0.000,   9,   1,1.03132, -17.2068,   2
 4721,'RAFFEEN ', 110.0000,1,     0.000,     0.000,   3,   1,1.06255, -16.8564,   1
 4722,'RAFFEEN ', 220.0000,1,     0.000,     0.000,   3,   1,1.05719, -15.2598,   1
 4741,'RINAWADE', 110.0000,1,     0.000,     0.000,   2,   3,1.05672,  -8.3386,   1
 4761,'RINGASKI', 110.0000,1,     0.000,     0.000,   3,   1,1.06242, -16.8639,   2
 4901,'SHELTON ', 110.0000,1,     0.000,     0.000,   6,   3,1.06007,  -9.3218,   5
 4911,'SHELTON ', 110.0000,1,     0.000,     0.000,   6,   3,1.06007,  -9.3218,   5
 4941,'SHANNONB', 110.0000,1,     0.000,     0.000,   5,   1,1.05469, -15.0516,   1
 4942,'SHANNONB', 220.0000,1,     0.000,     0.000,   5,   1,1.04080, -11.6707,   1
 4961,'SHANKILL', 110.0000,1,     0.000,     0.000,  10,   1,1.00389, -14.9592,   1
 4981,'SLIGO   ', 110.0000,1,     0.000,     0.000,   9,   1,1.03215, -20.6182,   1
 5001,'SOMERSET', 110.0000,1,     0.000,     0.000,   9,   1,1.04621, -15.3033,   2
 5022,'SHELLYBA', 220.0000,1,     0.000,     0.000,   2,   2,1.07402,  -3.4675,   1
 5061,'STRATFOR', 110.0000,1,     0.000,     0.000,   8,   1,1.04149, -12.5413,   2
 5141,'TARBERT ', 110.0000,1,     0.000,     0.000,   7,   1,1.05995, -12.2857,   1
 5142,'TARBERT ', 220.0000,1,     0.000,     0.000,   7,   1,1.06500,  -9.1387,   1
 5181,'TRABEG  ', 110.0000,1,     0.000,     0.000,   3,   1,1.05699, -17.0044,   1
 5202,'TURLOUGH', 220.0000,1,     0.000,     0.000,   2,   1,1.08226,  -3.4255,   1
 5221,'TULLABRA', 110.0000,1,     0.000,     0.000,   7,   1,1.00066, -18.1737,   2
 5241,'TAWN_A  ', 110.0000,1,     0.000,     0.000,   9,   3,1.04863, -21.1723,   2
 5251,'TAWN_B  ', 110.0000,1,     0.000,     0.000,   9,   3,1.04863, -21.1723,   2
 5261,'TRIEN   ', 110.0000,1,     0.000,     0.000,   7,   1,1.05986, -14.3312,   1
 5281,'TRALEE  ', 110.0000,1,     0.000,     0.000,   7,   1,1.04554, -15.4597,   1
 5301,'THURLES ', 110.0000,1,     0.000,     0.000,   5,   1,1.03941, -20.7244,   1
 5321,'THORNSBE', 110.0000,1,     0.000,     0.000,   2,   1,1.02515, -10.1864,   2
 5341,'TONROE  ', 110.0000,1,     0.000,     0.000,   9,   1,1.04808, -16.8064,   2
 5361,'TRILLICK', 110.0000,1,     0.000,     0.000,   9,   1,0.99022, -24.7601,   2
 5381,'TIPPERAR', 110.0000,1,     0.000,     0.000,   5,   1,1.04177, -19.2544,   1
 5441,'WATERFOR', 110.0000,1,     0.000,     0.000,   5,   1,1.04978, -15.5163,   1
 5462,'WOODLAND', 220.0000,1,     0.000,     0.000,   2,   1,1.07111,  -4.3113,   1
 5464,'WOODLAND', 380.0000,1,     0.000,     0.000,   2,   1,1.02269,  -2.4267,   1
 5481,'WHITEGAT', 110.0000,1,     0.000,     0.000,   3,   3,1.06256, -15.9660,   1
 5501,'WEXFORD ', 110.0000,1,     0.000,     0.000,   6,   1,1.04410, -14.9861,   1
 5521,'WOLFE TO', 110.0000,1,     0.000,     0.000,   1,   1,1.05150,  -8.5888,   2
10204,'ARDNACRU',  38.0000,2,     0.000,     0.000,   7,   1,1.02900, -20.5725,   2
10205,'ARDNACRU',  38.0000,1,     0.000,     0.000,   7,   1,1.23387, -25.1992,   2
10271,'ARDNG1  ',  10.5000,2,     0.000,     0.000,   7,   1,0.97538, -14.9031,   3
10272,'ARDNG2  ',  10.5000,2,     0.000,     0.000,   7,   1,0.98412, -17.9315,   3
10273,'ARDNG3  ',  10.5000,2,     0.000,     0.000,   7,   1,0.98412, -17.9315,   3
10274,'ARDNG4  ',  10.5000,2,     0.000,     0.000,   7,   1,0.98604, -17.9315,   3
10421,'AGHADA  ',  10.5000,1,     0.000,     0.000,   3,   1,1.05339, -13.9028,   1
10471,'AGH_G1  ',  20.0000,2,     0.000,     0.000,   3,   1,1.01877,  -7.8086,   3
10472,'AGH_G11 ',  10.5000,2,     0.000,     0.000,   3,   1,0.99535, -13.2870,   3
10473,'AGH_G12 ',  10.5000,2,     0.000,     0.000,   3,   1,0.99535, -13.2870,   3
10474,'AGH_G14 ',  10.5000,2,     0.000,     0.000,   3,   1,0.99535, -13.2870,   3
10476,'AGH_EMER',  10.5000,2,     0.000,     0.000,   3,   1,1.06311, -15.7285,   3
10602,'ARIGNA  ',  20.0000,2,     0.000,     0.000,   9,   1,1.05729, -17.8911,   2
10619,'ARIGNA_T', 110.0000,1,     0.000,     0.000,   9,   1,1.04176, -17.8195,   1
10801,'AHANE   ',  11.0000,1,     0.000,     0.000,   7,   1,1.03487, -18.4235,   2
11204,'ARKLOW  ',  38.0000,2,     0.000,     0.000,   6,   1,1.04240, -10.1752,   2
11221,'ARKL    ',  10.5000,1,     0.000,     0.000,   6,   1,1.05635,  -8.0264,   1
11222,'ARKL    ',  10.5000,1,     0.000,     0.000,   6,   1,1.06839,  -8.0240,   1
11404,'ATHLONE ',  38.0000,1,     0.000,     0.000,   9,   1,1.03309, -20.8393,   2
11461,'ATHLONE_', 110.0000,1,     0.000,     0.000,   8,   1,1.06491, -17.1016,   1
12001,'ARTANE  ',  10.0000,1,     0.000,     0.000,   1,   1,1.04632,  -9.8061,   2
12804,'BALLYLIC',  38.0000,2,     0.000,     0.000,   3,   1,1.05576, -20.2171,   1
13001,'BALLYBEG',  10.0000,1,     0.000,     0.000,   6,   1,1.04685, -10.2860,   2
13204,'BLAKE   ',  38.0000,1,     0.000,     0.000,   8,   1,1.04677,  -9.9275,   2
13219,'BLAKE T ', 110.0000,1,     0.000,     0.000,   8,   1,1.06456,  -6.9020,   1
13404,'BINBANE ',  38.0000,2,     0.000,     0.000,   9,   1,1.03212, -26.3750,   2
13601,'BALLYDIN',  10.0000,1,     0.000,     0.000,   5,   1,1.03997, -19.8509,   2
13604,'BALLYDIN',  38.0000,1,     0.000,     0.000,   5,   1,1.04597, -18.7309,   2
13802,'BARNAHEL',  20.0000,1,     0.000,     0.000,   3,   1,1.03513, -20.8016,   2
13804,'BARNAHEL',  38.0000,1,     0.000,     0.000,   3,   1,1.04824, -19.3051,   2
14002,'BELLACOR',  20.0000,2,     0.000,     0.000,   9,   1,1.04780, -21.4910,   2
14061,'BELL_CAP', 110.0000,1,     0.000,     0.000,   9,   1,1.05500, -20.1858,   1
14071,'BELLG1  ',  10.5000,2,     0.000,     0.000,   9,   1,0.99895, -15.0577,   3
14072,'BELLG2  ',  10.5000,2,     0.000,     0.000,   9,   1,0.98140, -20.1858,   3
14204,'BLACKROC',  38.0000,1,     0.000,     0.000,   2,   1,1.03848, -12.3159,   2
14401,'BANDON  ',  10.0000,1,     0.000,     0.000,   3,   1,1.03608, -20.6435,   1
14404,'BANDON  ',  38.0000,1,     0.000,     0.000,   3,   1,1.04532, -22.0814,   2
14461,'BAN_CAP ', 110.0000,1,     0.000,     0.000,   3,   1,1.04778, -18.5724,   1
14604,'BARRYMOR',  38.0000,2,     0.000,     0.000,   5,   1,1.03345, -23.8820,   2
14619,'BARRYM T', 110.0000,1,     0.000,     0.000,   5,   1,1.05742, -18.0757,   1
14804,'BUTLERST',  38.0000,1,     0.000,     0.000,   5,   1,1.04078, -19.3383,   2
15001,'BRINNY  ',  10.0000,1,     0.000,     0.000,   3,   1,1.04053, -19.7297,   5
15801,'CABRA   ',  10.0000,1,     0.000,     0.000,   1,   1,1.03826, -10.6657,   2
16021,'CLASH   ',  10.5000,1,     0.000,     0.000,   3,   1,1.06937, -14.1209,   1
16202,'COOLROE ',  20.0000,1,     0.000,     0.000,   3,   1,1.04657, -18.5039,   2
16421,'CASH    ',  10.5000,1,     0.000,     0.000,   9,   1,1.04002, -10.8879,   1
16422,'CASH2   ',  10.5000,1,     0.000,     0.000,   9,   1,1.04002, -10.8970,   1
16461,'CASH_CAP', 110.0000,1,     0.000,     0.000,   9,   1,1.05579, -14.5963,   1
16604,'CASTLEBA',  38.0000,2,     0.000,     0.000,   9,   1,1.04685, -23.1897,   2
16661,'CBAR_CAP', 110.0000,1,     0.000,     0.000,   9,   1,1.05644, -19.7981,   1
16662,'CBAR_SVC', 110.0000,1,     0.000,     0.000,   9,   1,1.05704, -19.7981,   1
16873,'CDRDG3  ',  10.5000,2,     0.000,     0.000,   3,   1,0.98180, -17.2974,   3
17004,'CATH_FAL',  38.0000,2,     0.000,     0.000,   9,   1,1.05737, -23.1701,   2
17061,'CATH_CAP', 110.0000,1,     0.000,     0.000,   9,   1,1.02015, -21.4409,   1
17073,'CATHG3  ',  10.5000,2,     0.000,     0.000,   9,   1,1.00444, -19.9454,   3
17074,'CATHG4  ',  10.5000,2,     0.000,     0.000,   9,   1,0.99609, -21.4409,   3
17204,'CAHIR   ',  38.0000,1,     0.000,     0.000,   5,   1,1.04513, -21.4305,   2
17261,'CAHR_CAP', 110.0000,1,     0.000,     0.000,   5,   1,1.05876, -19.9222,   1
17404,'CARRICKM',  38.0000,1,     0.000,     0.000,   2,   1,1.05055, -11.8846,   2
17421,'CMIN1   ',  10.5000,1,     0.000,     0.000,   2,   1,1.08425,  -4.7124,   2
17422,'CMIN2   ',  10.5000,1,     0.000,     0.000,   2,   1,1.08425,  -4.7124,   2
17431,'CKMN_PST', 220.0000,1,     0.000,     0.000,   2,   1,1.07434,  -4.5970,   1
17462,'CKM_SR  ', 220.0000,1,     0.000,     0.000,   2,   1,1.07041,  -3.9866,   1
17671,'CLIFG1  ',  10.5000,2,     0.000,     0.000,   9,   1,0.98988, -19.3565,   3
17672,'CLIFG2  ',  10.5000,2,     0.000,     0.000,   9,   1,0.99672, -21.3969,   3
17802,'CASTLEFA',  20.0000,1,     0.000,     0.000,   7,   1,1.03028, -21.8685,   1
18004,'COOKSTOW',  38.0000,1,     0.000,     0.000,   1,   1,1.04197, -13.4052,   2
18204,'CLOON   ',  38.0000,1,     0.000,     0.000,   9,   1,1.03171, -20.1994,   2
18402,'CRANE   ',  20.0000,1,     0.000,     0.000,   6,   1,1.04927, -14.3085,   2
18404,'CRANE   ',  38.0000,1,     0.000,     0.000,   6,   1,1.03087, -17.8571,   2
18604,'CARRICK ',  38.0000,1,     0.000,     0.000,   9,   1,1.04923, -19.6241,   2
18701,'COLLEGE ',  10.0000,1,     0.000,     0.000,   2,   1,1.03582,  -8.7639,   1
18804,'CHARLEVI',  38.0000,1,     0.000,     0.000,   3,   1,1.03780, -20.9795,   2
19004,'CARLOW  ',  38.0000,1,     0.000,     0.000,   8,   1,1.04833, -15.8006,   2
19204,'COW_CROS',  38.0000,1,     0.000,     0.000,   3,   1,1.04757, -19.9716,   2
19302,'CUNGHILL',  20.0000,1,     0.000,     0.000,   9,   1,1.00549, -18.8839,   4
19402,'CUNGHILL',  20.0000,2,     0.000,     0.000,   9,   1,1.00000, -16.7824,   1
19471,'EDENDERR',  11.0000,2,     0.000,     0.000,   8,   1,1.00277,   1.4243,   4
19601,'CASTLEVI',  10.0000,1,     0.000,     0.000,   3,   1,1.05156, -18.6923,   2
20021,'CULLENAG',  10.5000,1,     0.000,     0.000,   5,   1,1.05814, -13.7143,   1
20201,'CITY WES',  10.0000,1,     0.000,     0.000,   1,   1,1.04371,  -9.1052,   2
21004,'DUNDALK ',  38.0000,1,     0.000,     0.000,  10,   1,1.03433, -15.3957,   2
21204,'DRUMLINE',  38.0000,1,     0.000,     0.000,   7,   1,1.04704, -22.4382,   2
21404,'DUNGARVA',  38.0000,1,     0.000,     0.000,   5,   1,1.03285, -18.9464,   2
21604,'DOON    ',  38.0000,1,     0.000,     0.000,   5,   1,1.04123, -24.8407,   2
21661,'DOON_CAP', 110.0000,1,     0.000,     0.000,   5,   1,1.05105, -19.4085,   1
21804,'DRYBRIDG',  38.0000,1,     0.000,     0.000,  10,   1,1.03921, -16.8931,   2
22021,'DUNS    ',  17.5000,1,     0.000,     0.000,   2,   1,1.08190,  -1.8841,   1
22204,'DUNMANWA',  38.0000,2,     0.000,     0.000,   3,   1,1.03928, -21.2232,   2
22261,'DUNM_CAP', 110.0000,1,     0.000,     0.000,   3,   1,1.04293, -18.7197,   1
22404,'DALLOW  ',  38.0000,1,     0.000,     0.000,   5,   1,1.04648, -16.5319,   2
22419,'DALLOW T', 110.0000,1,     0.000,     0.000,   5,   1,1.05142, -14.4167,   1
22804,'DALTON  ',  38.0000,1,     0.000,     0.000,   9,   1,1.03619, -21.7475,   2
22861,'DALT_CAP', 110.0000,1,     0.000,     0.000,   9,   1,1.05562, -18.9220,   1
23001,'DUNFIRTH',  10.0000,1,     0.000,     0.000,   2,   1,1.03819, -10.6556,   2
23019,'DUNFIR_T', 110.0000,1,     0.000,     0.000,   2,   1,1.04929,  -8.9729,   1
23604,'ENNIS   ',  38.0000,1,     0.000,     0.000,   7,   1,1.04399, -22.3680,   2
24804,'FASSAROE',  38.0000,1,     0.000,     0.000,   2,   1,1.04938, -10.7797,   2
25221,'FLAG1   ',  10.5000,1,     0.000,     0.000,   9,   1,1.08224, -12.8138,   1
25222,'FLAG2   ',  10.5000,1,     0.000,     0.000,   9,   1,1.08192, -12.8595,   1
25404,'FRANCIS ',  38.0000,1,     0.000,     0.000,   1,   1,1.03471, -13.2918,   2
25604,'FINGLAS ',  38.0000,1,     0.000,     0.000,   2,   1,1.06246, -14.1789,   1
25621,'FING1   ',  10.5000,1,     0.000,     0.000,   2,   1,1.06432,  -5.1593,   1
25622,'FING2   ',  10.5000,1,     0.000,     0.000,   2,   1,1.06428,  -5.1594,   1
25623,'FING3   ',  10.5000,1,     0.000,     0.000,   2,   1,1.06830,  -5.1043,   1
25624,'FING4   ',  10.5000,1,     0.000,     0.000,   2,   1,1.06830,  -5.1043,   1
26802,'GILRA   ',  20.0000,1,     0.000,     0.000,   9,   1,1.05244, -18.9543,   5
27004,'GLASMORE',  38.0000,1,     0.000,     0.000,   2,   1,1.05408, -12.7442,   2
27204,'GRIFFINR',  38.0000,2,     0.000,     0.000,   2,   1,1.05046, -11.8940,   2
27219,'GRFRAT T', 110.0000,1,     0.000,     0.000,   2,   1,1.06099,  -8.0664,   2
27404,'GREAT IS',  38.0000,1,     0.000,     0.000,   6,   1,1.05535, -17.2331,   2
27421,'GISL    ',  10.5000,1,     0.000,     0.000,   6,   1,1.06835, -12.5646,   1
27422,'GISL    ',  10.5000,1,     0.000,     0.000,   6,   1,1.06842, -12.5592,   1
27471,'GISLG1  ',  10.5000,2,     0.000,     0.000,   6,   1,1.00346, -14.7721,   3
27472,'GISLG2  ',  10.5000,2,     0.000,     0.000,   6,   1,1.00346, -14.7721,   3
27473,'GISLG3  ',  13.8000,2,     0.000,     0.000,   6,   1,0.98078, -11.8478,   3
27604,'GRANGE  ',  38.0000,1,     0.000,     0.000,   1,   1,1.05541, -11.2174,   2
27802,'GALWAY  ',  20.0000,1,     0.000,     0.000,   9,   1,1.04479, -18.0443,   2
27804,'GALWAY  ',  38.0000,2,     0.000,     0.000,   9,   1,1.04088, -20.6371,   2
28002,'GOLAGH  ',  22.0000,2,     0.000,     0.000,   9,   1,0.98149, -20.4605,   1
28019,'GOLAGH T', 110.0000,1,     0.000,     0.000,   9,   1,1.01141, -22.4269,   1
28261,'GWE_CAP ', 110.0000,1,     0.000,     0.000,   9,   1,1.01889, -18.4900,   1
28604,'GRANGE C',  38.0000,1,     0.000,     0.000,   1,   1,1.05253, -10.2633,   2
28804,'GLENLARA',  38.0000,1,     0.000,     0.000,   3,   1,1.04202, -20.8463,   1
29401,'HAROLDS_',  10.0000,1,     0.000,     0.000,   1,   1,1.05193,  -9.3422,   2
29671,'HUNT_CT ',  16.0000,2,     0.000,     0.000,   2,   2,1.00590,   3.7836,   4
29672,'HUNT_ST ',  10.5000,2,     0.000,     0.000,   2,   2,1.00687,   3.7214,   4
30671,'INISG1  ',  10.5000,2,     0.000,     0.000,   3,   1,0.99286, -17.1095,   3
30804,'INCHICOR',  38.0000,1,     0.000,     0.000,   1,   1,1.05315, -14.7819,   2
30821,'INCH1   ',  10.5000,1,     0.000,     0.000,   1,   1,1.08654,  -5.1767,   2
30822,'INCH2   ',  10.5000,1,     0.000,     0.000,   1,   1,1.08654,  -5.1767,   2
31004,'IKERRIN ',  38.0000,1,     0.000,     0.000,   5,   1,1.05419, -23.4543,   2
31019,'IKERIN T', 110.0000,1,     0.000,     0.000,   5,   1,1.03371, -19.4431,   1
31271,'DUBLIN B',  21.0000,2,     0.000,     0.000,   2,   2,1.00303,   4.3492,   4
32021,'KRAH    ',  10.5000,1,     0.000,     0.000,   3,   1,1.08454, -14.7257,   1
32022,'KRAH    ',  10.5000,1,     0.000,     0.000,   3,   1,1.08488, -14.7255,   1
32201,'KILBARRY',  10.0000,1,     0.000,     0.000,   3,   1,1.03983, -19.5489,   1
32204,'KILBARRY',  38.0000,1,     0.000,     0.000,   3,   1,1.03348, -22.8242,   2
32404,'KILTEEL ',  38.0000,1,     0.000,     0.000,   8,   1,1.04392, -13.1251,   2
32419,'KILTEL T', 110.0000,1,     0.000,     0.000,   8,   1,1.02965, -10.3040,   1
32604,'KILKENNY',  38.0000,2,     0.000,     0.000,   8,   1,1.05289, -19.5409,   2
32821,'KLON    ',  10.5000,1,     0.000,     0.000,   7,   1,1.06068, -14.0389,   1
32822,'KLON    ',  10.5000,1,     0.000,     0.000,   7,   1,1.06068, -14.0389,   1
32824,'KLON    ',  10.5000,1,     0.000,     0.000,   7,   1,1.06041, -14.0651,   1
33004,'KNOCKERA',  38.0000,1,     0.000,     0.000,   7,   1,1.03328, -21.4580,   2
33421,'KELLIS  ',  10.5000,1,     0.000,     0.000,   8,   1,1.07007,  -9.7001,   1