<!DOCTYPE HTML PUBLIC "-//W3C//DTD HTML 4.0 Transitional//EN">
<!-- saved from url=(0069)http://www.eirgrid.com/EirgridPortal/uploads/Publications/s07_web.raw -->
<HTML><HEAD>
<META http-equiv=Content-Type content="text/html; charset=windows-1252">
<META content="MSHTML 6.00.2900.3492" name=GENERATOR></HEAD>
<BODY><PRE>0,   100.00          / PSS/E-29.4    THU, JUL 22 2004  14:42
ESB NATIONAL GRID FORECAST STATEMENT 2004-2010
BASECASE SUMMER 2007
   10,'F_M_____',  38.0000,1,     0.000,     0.000,   1,   1,1.03503, -11.4965,   2
   11,'FMN_LOOP',  38.0000,1,     0.000,     0.000,   1,   1,1.04779,  -9.4543,   2
   12,'BEDFORD ',  38.0000,1,     0.000,     0.000,   1,   1,1.03400, -12.4039,   2
   13,'M_R_____',  38.0000,1,     0.000,     0.000,   1,   1,1.05324, -11.9780,   2
   14,'F_I_____',  38.0000,1,     0.000,     0.000,   1,   1,1.05177, -12.4949,   2
   15,'I_M_____',  38.0000,1,     0.000,     0.000,   1,   1,1.04986, -11.4487,   2
   41,'TANEY   ', 110.0000,1,     0.000,     0.000,   1,   1,1.05968,  -7.0678,   1
   51,'MISERY H', 110.0000,1,     0.000,     0.000,   1,   1,1.06861,  -5.9952,   1
   52,'MISERY H',  38.0000,1,     0.000,     0.000,   1,   1,1.06861,  -5.9952,   1
 1021,'ARDNACRU', 110.0000,1,     0.000,     0.000,   7,   1,1.03000,  -8.3385,   1
 1041,'AGHADA  ', 110.0000,1,     0.000,     0.000,   3,   1,1.06411,  -9.2350,   1
 1042,'AGHADA  ', 220.0000,1,     0.000,     0.000,   3,   1,1.07500,  -7.0758,   1
 1061,'ARIGNA  ', 110.0000,1,     0.000,     0.000,   9,   1,1.04910,  -8.1473,   2
 1081,'AHANE   ', 110.0000,1,     0.000,     0.000,   7,   1,1.04481,  -8.1789,   2
 1101,'ANNER   ', 110.0000,1,     0.000,     0.000,   5,   3,1.05108, -13.2341,   5
 1121,'ARKLOW  ', 110.0000,1,     0.000,     0.000,   6,   1,1.06800,  -5.9858,   1
 1122,'ARKLOW  ', 220.0000,1,     0.000,     0.000,   6,   1,1.06112,  -4.8199,   1
 1141,'ATHLONE ', 110.0000,1,     0.000,     0.000,   8,   1,1.06574,  -6.4535,   1
 1151,'ARKLOW B', 110.0000,2,     0.000,     0.000,   6,   1,1.07125,  -5.7288,   1
 1161,'AUGHINIS', 110.0000,1,     0.000,     0.000,   7,   3,1.07500,  -2.5530,   1
 1171,'SEALROCK', 110.0000,1,     0.000,     0.000,   7,   1,1.07579,  -2.5010,   1
 1181,'ARVA    ', 110.0000,1,     0.000,     0.000,  10,   1,1.03445,  -9.1598,   1
 1191,'SEALROCK', 110.0000,1,     0.000,     0.000,   7,   1,1.07579,  -2.5010,   1
 1201,'ARTANE  ', 110.0000,1,     0.000,     0.000,   1,   1,1.05204,  -6.6453,   2
 1221,'ATHY    ', 110.0000,1,     0.000,     0.000,   8,   1,1.04382,  -7.5763,   1
 1231,'BALLYWAT', 110.0000,2,     0.000,     0.000,   6,   1,1.05203,  -9.1136,   1
 1251,'BOOLTIAG', 110.0000,2,     0.000,     0.000,   7,   1,1.02152,  -7.5638,   1
 1281,'BALLYLIC', 110.0000,1,     0.000,     0.000,   3,   1,1.04277, -11.6255,   2
 1301,'BALLYBEG', 110.0000,1,     0.000,     0.000,   6,   1,1.06109,  -5.9332,   1
 1321,'BLAKE   ', 110.0000,1,     0.000,     0.000,   8,   1,1.04826,  -5.9799,   2
 1341,'BINBANE ', 110.0000,1,     0.000,     0.000,   9,   1,1.01441, -11.2848,   2
 1361,'BALLYDIN', 110.0000,1,     0.000,     0.000,   5,   1,1.05118, -12.4862,   1
 1381,'BARNAHEL', 110.0000,1,     0.000,     0.000,   3,   1,1.06655, -10.1575,   1
 1401,'BELLACOR', 110.0000,1,     0.000,     0.000,   9,   1,1.04661, -10.1278,   1
 1421,'BLACKROC', 110.0000,1,     0.000,     0.000,   2,   2,1.05963,  -5.1228,   2
 1441,'BANDON  ', 110.0000,1,     0.000,     0.000,   3,   1,1.04935, -11.6665,   1
 1461,'BARRYMOR', 110.0000,1,     0.000,     0.000,   5,   1,1.05497, -11.4796,   2
 1481,'BUTLERST', 110.0000,1,     0.000,     0.000,   5,   1,1.04902, -11.1045,   1
 1501,'BRINNY  ', 110.0000,1,     0.000,     0.000,   3,   1,1.04921, -11.6749,   5
 1511,'BRINNY  ', 110.0000,1,     0.000,     0.000,   3,   1,1.04922, -11.6745,   5
 1541,'BANOGE  ', 110.0000,1,     0.000,     0.000,   6,   1,1.05485,  -7.8589,   1
 1581,'CABRA   ', 110.0000,1,     0.000,     0.000,   1,   2,1.05137,  -6.6751,   2
 1601,'CLASHAVO', 110.0000,1,     0.000,     0.000,   3,   1,1.05065,  -9.2702,   1
 1602,'CLASHAVO', 220.0000,1,     0.000,     0.000,   3,   1,1.06427,  -5.8901,   1
 1621,'COOLROE ', 110.0000,1,     0.000,     0.000,   3,   1,1.05346, -10.4794,   1
 1631,'CORDERRY', 110.0000,1,     0.000,     0.000,   9,   1,1.04809,  -8.3855,   1
 1641,'CASHLA  ', 110.0000,1,     0.000,     0.000,   9,   1,1.06740,  -3.5248,   1
 1642,'CASHLA  ', 220.0000,1,     0.000,     0.000,   9,   1,1.06695,  -0.0703,   1
 1661,'CASTLEBA', 110.0000,1,     0.000,     0.000,   9,   1,1.05408,  -9.1611,   1
 1681,'CARRIGAD', 110.0000,1,     0.000,     0.000,   3,   1,1.05156, -10.2108,   1
 1701,'CATH_FAL', 110.0000,1,     0.000,     0.000,   9,   1,1.04000, -10.2420,   1
 1721,'CAHIR   ', 110.0000,1,     0.000,     0.000,   5,   1,1.05998, -12.9973,   1
 1741,'CARRICKM', 110.0000,1,     0.000,     0.000,   2,   2,1.06043,  -5.0331,   2
 1742,'CARRICKM', 220.0000,1,     0.000,     0.000,   2,   2,1.07314,  -2.3270,   1
 1761,'CLIFF   ', 110.0000,1,     0.000,     0.000,   9,   1,1.04090, -10.2043,   1
 1781,'CASTLEFA', 110.0000,1,     0.000,     0.000,   7,   3,1.07461,  -2.5711,   5
 1791,'CASTLEFA', 110.0000,1,     0.000,     0.000,   7,   3,1.07461,  -2.5711,   5
 1801,'COOKSTOW', 110.0000,1,     0.000,     0.000,   1,   2,1.05720,  -7.0680,   2
 1821,'CLOON   ', 110.0000,1,     0.000,     0.000,   9,   1,1.05626,  -5.6525,   2
 1841,'CRANE   ', 110.0000,1,     0.000,     0.000,   6,   1,1.04814,  -9.5448,   1
 1861,'CARRICK ', 110.0000,1,     0.000,     0.000,   9,   1,1.05340,  -7.8118,   1
 1871,'COLLEGE ', 110.0000,1,     0.000,     0.000,   2,   1,1.06425,  -5.3797,   1
 1881,'CHARLEVI', 110.0000,1,     0.000,     0.000,   3,   1,1.02639, -10.2342,   1
 1901,'CARLOW  ', 110.0000,1,     0.000,     0.000,   8,   1,1.04639,  -8.6316,   1
 1921,'COW CROS', 110.0000,1,     0.000,     0.000,   3,   1,1.06438, -10.0496,   1
 1931,'CUNGHILL', 110.0000,1,     0.000,     0.000,   9,   1,1.04587,  -9.4061,   4
 1941,'CUSHALIN', 110.0000,1,     0.000,     0.000,   8,   1,1.07500,  -2.3511,   1
 1961,'CASTLEVI', 110.0000,1,     0.000,     0.000,   3,   1,1.06323, -10.0485,   1
 1981,'CORRACLA', 110.0000,1,     0.000,     0.000,   9,   1,1.03635, -10.2049,   1
 2001,'CULLENAG', 110.0000,1,     0.000,     0.000,   5,   1,1.05613, -10.8051,   1
 2002,'CULLENAG', 220.0000,1,     0.000,     0.000,   5,   1,1.04497,  -8.3343,   1
 2021,'CITY WES', 110.0000,1,     0.000,     0.000,   1,   1,1.05831,  -7.0128,   2
 2041,'CORDUFF ', 110.0000,1,     0.000,     0.000,   2,   1,1.06508,  -5.3095,   1
 2042,'CORDUFF ', 220.0000,1,     0.000,     0.000,   2,   1,1.07284,  -2.7240,   1
 2081,'DUNKETTL', 110.0000,1,     0.000,     0.000,   3,   1,1.06323, -10.0485,   5
 2101,'DUNDALK ', 110.0000,1,     0.000,     0.000,  10,   1,1.04796,  -8.4193,   1
 2121,'DRUMLINE', 110.0000,1,     0.000,     0.000,   7,   1,1.01638,  -8.5585,   1
 2141,'DUNGARVA', 110.0000,1,     0.000,     0.000,   5,   1,1.04642, -11.2042,   1
 2161,'DOON    ', 110.0000,1,     0.000,     0.000,   5,   1,1.05166, -13.2008,   1
 2181,'DRYBRIDG', 110.0000,1,     0.000,     0.000,  10,   1,1.04672,  -7.7630,   1
 2202,'DUNSTOWN', 220.0000,1,     0.000,     0.000,   2,   1,1.07393,  -2.1493,   1
 2204,'DUNSTOWN', 380.0000,1,     0.000,     0.000,   2,   1,1.03137,   2.0849,   1
 2221,'DUNMANWA', 110.0000,1,     0.000,     0.000,   3,   1,1.04311, -11.6231,   1
 2231,'DERRYBRI', 110.0000,2,     0.000,     0.000,   9,   1,1.05373,  -5.3050,   1
 2241,'DALLOW  ', 110.0000,1,     0.000,     0.000,   5,   1,1.05891,  -5.3762,   2
 2261,'DERRYIRO', 110.0000,1,     0.000,     0.000,   2,   1,1.03852,  -7.4941,   1
 2281,'DALTON  ', 110.0000,1,     0.000,     0.000,   9,   1,1.06031,  -7.8940,   1
 2301,'DUNFIRTH', 110.0000,1,     0.000,     0.000,   2,   1,1.04751,  -6.9013,   2
 2321,'DRUMKEEN', 110.0000,1,     0.000,     0.000,   9,   1,1.03483, -10.8374,   1
 2361,'ENNIS   ', 110.0000,1,     0.000,     0.000,   7,   1,1.02234,  -7.7279,   1
 2481,'FASS EAS', 110.0000,1,     0.000,     0.000,   2,   2,1.05536,  -5.2726,   2
 2491,'FASS WES', 110.0000,1,     0.000,     0.000,   2,   2,1.05520,  -5.2702,   2
 2521,'FLAGFORD', 110.0000,1,     0.000,     0.000,   9,   1,1.05655,  -7.6582,   1
 2522,'FLAGFORD', 220.0000,1,     0.000,     0.000,   9,   1,1.04051,  -5.3169,   1
 2541,'FRN ST A', 110.0000,1,     0.000,     0.000,   1,   2,1.06749,  -6.0845,   2
 2551,'FRN ST B', 110.0000,1,     0.000,     0.000,   1,   2,1.06201,  -6.8000,   2
 2561,'FIN_URBA', 110.0000,1,     0.000,     0.000,   2,   2,1.05369,  -6.4789,   1
 2562,'FINGLAS ', 220.0000,1,     0.000,     0.000,   2,   2,1.07407,  -2.6331,   1
 2571,'FIN_RURA', 110.0000,1,     0.000,     0.000,   2,   2,1.06398,  -5.4057,   1
 2681,'GILRA   ', 110.0000,1,     0.000,     0.000,   9,   3,1.05771,  -7.9573,   2
 2701,'GLASMORE', 110.0000,1,     0.000,     0.000,   2,   2,1.04541,  -7.2330,   2
 2721,'GRIFFINR', 110.0000,1,     0.000,     0.000,   2,   2,1.06028,  -5.9558,   2
 2731,'GRIFFINR', 110.0000,1,     0.000,     0.000,   2,   1,1.06055,  -5.9373,   2
 2741,'GREAT IS', 110.0000,1,     0.000,     0.000,   6,   1,1.05495, -10.5273,   1
 2742,'GREAT IS', 220.0000,1,     0.000,     0.000,   6,   1,1.04252,  -7.7626,   1
 2761,'GRANGE  ', 110.0000,1,     0.000,     0.000,   1,   2,1.05259,  -6.6395,   2
 2781,'GALWAY  ', 110.0000,1,     0.000,     0.000,   9,   1,1.05670,  -4.0393,   1
 2801,'GOLAGH  ', 110.0000,1,     0.000,     0.000,   9,   1,1.03676, -10.4481,   1
 2821,'GORTAWEE', 110.0000,1,     0.000,     0.000,   9,   1,1.03729, -10.2215,   1
 2841,'GORMAN  ', 110.0000,1,     0.000,     0.000,  10,   1,1.05811,  -7.8828,   1
 2842,'GORMAN  ', 220.0000,1,     0.000,     0.000,  10,   1,1.03622,  -5.1834,   1
 2861,'GRANGE C', 110.0000,1,     0.000,     0.000,   1,   1,1.05922,  -7.0452,   2
 2881,'GLENLARA', 110.0000,1,     0.000,     0.000,   3,   1,1.01681, -10.7845,   2
 2921,'HAULBOWL', 110.0000,1,     0.000,     0.000,   3,   3,1.06775, -10.0886,   5
 2931,'HAULBOWL', 110.0000,1,     0.000,     0.000,   3,   3,1.06656, -10.1577,   5
 2941,'HAROLDS ', 110.0000,1,     0.000,     0.000,   1,   2,1.06793,  -6.0474,   2
 2962,'HUNTSTOW', 220.0000,1,     0.000,     0.000,   2,   1,1.07441,  -2.5310,   1
 2981,'HARNETTS', 110.0000,1,     0.000,     0.000,   3,   1,1.05063, -10.2686,   2
 3061,'INISCARR', 110.0000,1,     0.000,     0.000,   3,   1,1.05348, -10.4055,   1
 3081,'INCHICOR', 110.0000,1,     0.000,     0.000,   1,   2,1.06452,  -6.6337,   2
 3082,'INCHICOR', 220.0000,1,     0.000,     0.000,   2,   2,1.07292,  -3.0043,   1
 3101,'IKERRIN ', 110.0000,1,     0.000,     0.000,   5,   1,1.03666, -10.8536,   2
 3122,'IRISHTOW', 220.0000,1,     0.000,     0.000,   2,   1,1.07496,  -2.0500,   1
 3201,'KNOCKRAH', 110.0000,1,     0.000,     0.000,   3,   1,1.06512,  -9.8909,   1
 3202,'KNOCKRAH', 220.0000,1,     0.000,     0.000,   3,   1,1.06555,  -7.4881,   1
 3221,'KILBARRY', 110.0000,1,     0.000,     0.000,   3,   1,1.05661, -10.4184,   1
 3241,'KILTEEL ', 110.0000,1,     0.000,     0.000,   8,   1,1.04766,  -6.1634,   2
 3261,'KILKENNY', 110.0000,1,     0.000,     0.000,   8,   1,1.01452, -11.1250,   1
 3281,'KILLONAN', 110.0000,1,     0.000,     0.000,   7,   1,1.04528,  -8.1440,   1
 3282,'KILLONAN', 220.0000,1,     0.000,     0.000,   7,   1,1.05408,  -4.9346,   1
 3301,'KNOCKERA', 110.0000,1,     0.000,     0.000,   7,   1,1.01869,  -8.4714,   1
 3321,'KNOCKUMB', 110.0000,1,     0.000,     0.000,  10,   3,1.05057,  -8.2888,   5
 3341,'KELLIS  ', 110.0000,1,     0.000,     0.000,   8,   1,1.05077,  -8.5176,   1
 3342,'KELLIS  ', 220.0000,1,     0.000,     0.000,   8,   1,1.04426,  -5.8420,   1
 3361,'KILTOY  ', 110.0000,1,     0.000,     0.000,   9,   3,1.02964, -11.3608,   5
 3371,'KILTOY  ', 110.0000,1,     0.000,     0.000,   9,   3,1.02955, -11.3660,   5
 3381,'KINNEGAD', 110.0000,1,     0.000,     0.000,   2,   1,1.04044,  -7.4185,   1
 3401,'KILLOTER', 110.0000,1,     0.000,     0.000,   5,   1,1.04984, -11.0504,   1
 3421,'KILMORE ', 110.0000,1,     0.000,     0.000,   1,   1,1.05297,  -6.5891,   2
 3441,'KILMURRY', 110.0000,1,     0.000,     0.000,   8,   1,1.04675, -10.7711,   1
 3501,'LANESBOR', 110.0000,1,     0.000,     0.000,   9,   1,1.06500,  -5.8432,   1
 3521,'LOUTH   ', 110.0000,1,     0.000,     0.000,  10,   1,1.06502,  -7.6126,   1
 3522,'LOUTH   ', 220.0000,1,     0.000,     0.000,  10,   1,1.03325,  -5.6092,   1
 3541,'LIMERICK', 110.0000,1,     0.000,     0.000,   7,   1,1.03938,  -7.8307,   1
 3561,'LISDRUM ', 110.0000,1,     0.000,     0.000,  10,   1,1.02424,  -9.3087,   1
 3581,'LETTERKE', 110.0000,1,     0.000,     0.000,   9,   1,1.03074, -11.2913,   1
 3601,'LIBERTY ', 110.0000,1,     0.000,     0.000,   3,   1,1.05982, -10.3387,   2
 3611,'LIBERTY ', 110.0000,1,     0.000,     0.000,   3,   1,1.05995, -10.3263,   2
 3621,'LISHEEN ', 110.0000,1,     0.000,     0.000,   5,   1,1.03636, -13.1192,   1
 3761,'MACETOWN', 110.0000,1,     0.000,     0.000,   2,   2,1.06160,  -5.5926,   1
 3781,'MCDERMOT', 110.0000,1,     0.000,     0.000,   1,   2,1.05131,  -6.6860,   2
 3801,'MIDLETON', 110.0000,1,     0.000,     0.000,   3,   1,1.05787, -10.0581,   1
 3821,'MEATH HI', 110.0000,1,     0.000,     0.000,  10,   1,1.04824,  -8.3151,   2
 3841,'MAYNOOTH', 110.0000,1,     0.000,     0.000,   2,   2,1.06155,  -5.8383,   1
 3842,'MAYNOOTH', 220.0000,1,     0.000,     0.000,   2,   2,1.06793,  -3.1335,   1
 3861,'MILLTOWN', 110.0000,1,     0.000,     0.000,   1,   2,1.06868,  -5.9524,   2
 3871,'MILLTOWN', 110.0000,1,     0.000,     0.000,   1,   2,1.06003,  -7.0424,   2
 3881,'MACROOM ', 110.0000,1,     0.000,     0.000,   3,   1,1.05138, -10.2040,   1
 3901,'MONETEEN', 110.0000,1,     0.000,     0.000,   7,   1,1.04471,  -6.9550,   1
 3941,'MONEYPOI', 110.0000,1,     0.000,     0.000,   7,   1,1.01838,  -7.6700,   1
 3942,'MONEYPOI', 220.0000,1,     0.000,     0.000,   7,   1,1.07204,   1.9786,   1
 3944,'MNYPG1G3', 380.0000,1,     0.000,     6.000,   2,   1,1.07500,   8.5221,   1
 3954,'MNYPG2  ', 380.0000,1,     0.000,     6.000,   7,   1,1.07500,   6.7031,   1
 3961,'MARINA  ', 110.0000,1,     0.000,     0.000,   3,   1,1.06000, -10.3227,   1
 3981,'MUNGRET ', 110.0000,1,     0.000,     0.000,   7,   3,1.04451,  -6.9660,   5
 3991,'MUNGRET ', 110.0000,1,     0.000,     0.000,   7,   3,1.04452,  -6.9655,   5
 4001,'MULLINGA', 110.0000,1,     0.000,     0.000,   9,   1,1.03930,  -6.9747,   1
 4021,'MALLOW  ', 110.0000,1,     0.000,     0.000,   3,   1,1.03306, -10.6877,   1
 4041,'MOY     ', 110.0000,1,     0.000,     0.000,   9,   1,1.04460, -10.7363,   1
 4061,'MULLAGHA', 110.0000,1,     0.000,     0.000,  10,   1,1.05324,  -8.1792,   2
 4071,'MEENTYCA', 110.0000,2,     0.000,     0.000,   9,   1,1.03670, -10.6099,   1
 4081,'MONREAD ', 110.0000,1,     0.000,     0.000,   8,   1,1.04617,  -6.0657,   1
 4201,'NEWBRIDG', 110.0000,1,     0.000,     0.000,   8,   1,1.04733,  -5.6998,   1
 4221,'NAVAN   ', 110.0000,1,     0.000,     0.000,  10,   1,1.05404,  -8.0859,   1
 4242,'NORTH WA', 220.0000,1,     0.000,     0.000,   2,   2,1.07554,  -2.9014,   1
 4261,'NENAGH  ', 110.0000,1,     0.000,     0.000,   7,   1,1.02983,  -9.0068,   1
 4281,'NANGOR  ', 110.0000,1,     0.000,     0.000,   1,   1,1.05898,  -7.0618,   1
 4341,'OLDCOURT', 110.0000,1,     0.000,     0.000,   3,   3,1.06438, -10.0497,   5
 4351,'OLDCOURT', 110.0000,1,     0.000,     0.000,   3,   3,1.06438, -10.0497,   5
 4361,'OUGHTRAG', 110.0000,1,     0.000,     0.000,   7,   1,1.02729,  -6.9827,   2
 4382,'OLDSTREE', 220.0000,1,     0.000,     0.000,   9,   1,1.07116,   5.5614,   1
 4384,'OLDSTREE', 380.0000,1,     0.000,     0.000,   9,   1,1.06161,   5.4635,   1
 4441,'POLLAPHU', 110.0000,1,     0.000,     0.000,   8,   1,1.04234,  -9.1192,   1
 4451,'POOLBEG ', 110.0000,1,     0.000,     0.000,   1,   1,1.06959,  -5.8856,   2
 4461,'POOLBEG ', 110.0000,1,     0.000,     0.000,   1,   1,1.06989,  -5.7927,   2
 4462,'POOLBEG ', 220.0000,1,     0.000,     0.000,   2,   2,1.07500,  -3.0532,   1
 4471,'POOLBEG ', 110.0000,1,     0.000,     0.000,   1,   1,1.06989,  -5.7955,   2
 4481,'PORTLAOI', 110.0000,1,     0.000,     0.000,   8,   1,1.05087,  -5.9165,   1
 4501,'PLATIN  ', 110.0000,1,     0.000,     0.000,  10,   3,1.04819,  -7.6263,   1
 4522,'PROSPECT', 220.0000,1,     0.000,     0.000,   7,   1,1.07425,   0.7588,   1
 4621,'RYEBROOK', 110.0000,1,     0.000,     0.000,   2,   3,1.05222,  -6.3898,   1
 4651,'RINGSEND', 110.0000,1,     0.000,     0.000,   1,   2,1.06958,  -5.8854,   2
 4681,'RATHKEAL', 110.0000,1,     0.000,     0.000,   7,   1,1.04091,  -6.0990,   1
 4701,'RICHMOND', 110.0000,1,     0.000,     0.000,   9,   1,1.05322,  -6.3402,   2
 4721,'RAFFEEN ', 110.0000,1,     0.000,     0.000,   3,   1,1.06772, -10.0882,   1
 4722,'RAFFEEN ', 220.0000,1,     0.000,     0.000,   3,   1,1.06809,  -8.0417,   1
 4741,'RINAWADE', 110.0000,1,     0.000,     0.000,   2,   3,1.05621,  -6.1979,   1
 4761,'RINGASKI', 110.0000,1,     0.000,     0.000,   3,   1,1.06757, -10.0967,   2
 4781,'RATRUSSA', 110.0000,1,     0.000,     0.000,  10,   1,1.03535,  -8.2134,   1
 4901,'SHELTON ', 110.0000,1,     0.000,     0.000,   6,   3,1.06800,  -5.9858,   5
 4911,'SHELTON ', 110.0000,1,     0.000,     0.000,   6,   3,1.06800,  -5.9859,   5
 4941,'SHANNONB', 110.0000,1,     0.000,     0.000,   5,   1,1.06949,  -4.8628,   1
 4942,'SHANNONB', 220.0000,1,     0.000,     0.000,   5,   1,1.07500,  -4.4934,   1
 4961,'SHANKILL', 110.0000,1,     0.000,     0.000,  10,   1,1.01737,  -9.3460,   1
 4981,'SLIGO   ', 110.0000,1,     0.000,     0.000,   9,   1,1.04448,  -9.0452,   1
 5001,'SOMERSET', 110.0000,1,     0.000,     0.000,   9,   1,1.05893,  -4.9525,   2
 5022,'SHELLYBA', 220.0000,1,     0.000,     0.000,   2,   2,1.07525,  -2.0064,   1
 5031,'STEVENST', 110.0000,1,     0.000,     0.000,   2,   1,1.04527,  -7.1482,   2
 5041,'SRANANAG', 110.0000,1,     0.000,     0.000,   9,   1,1.04652,  -8.6663,   1
 5042,'SRANANAG', 220.0000,1,     0.000,     0.000,   9,   1,1.04192,  -6.7721,   1
 5061,'STRATFOR', 110.0000,1,     0.000,     0.000,   8,   1,1.03845,  -9.1483,   2
 5071,'SHANEMOR', 110.0000,1,     0.000,     0.000,   9,   1,1.05091,  -5.6407,   1
 5141,'TARBERT ', 110.0000,1,     0.000,     0.000,   7,   1,1.06160,  -2.7204,   1
 5142,'TARBERT ', 220.0000,1,     0.000,     0.000,   7,   1,1.07500,  -0.2227,   1
 5172,'TYNAGH  ', 220.0000,1,     0.000,     0.000,   9,   1,1.07500,   5.5750,   1
 5181,'TRABEG  ', 110.0000,1,     0.000,     0.000,   3,   1,1.06017, -10.3472,   1
 5202,'TURLOUGH', 220.0000,1,     0.000,     0.000,   2,   1,1.08233,  -1.9262,   1
 5221,'TULLABRA', 110.0000,1,     0.000,     0.000,   7,   1,1.01782,  -7.6834,   2
 5241,'TAWN_A  ', 110.0000,1,     0.000,     0.000,   9,   3,1.04464, -10.7373,   2
 5251,'TAWN_B  ', 110.0000,1,     0.000,     0.000,   9,   3,1.04464, -10.7373,   2
 5261,'TRIEN   ', 110.0000,1,     0.000,     0.000,   7,   1,1.06068,  -4.6041,   1
 5281,'TRALEE  ', 110.0000,1,     0.000,     0.000,   7,   1,1.04769,  -5.4509,   1
 5301,'THURLES ', 110.0000,1,     0.000,     0.000,   5,   1,1.04036, -12.8747,   1
 5321,'THORNSBE', 110.0000,1,     0.000,     0.000,   2,   1,1.01923,  -8.2762,   2
 5341,'TONROE  ', 110.0000,1,     0.000,     0.000,   9,   1,1.04654,  -8.1156,   2
 5361,'TRILLICK', 110.0000,1,     0.000,     0.000,   9,   1,1.03062, -10.6929,   2
 5381,'TIPPERAR', 110.0000,1,     0.000,     0.000,   5,   1,1.04693, -11.4995,   1
 5441,'WATERFOR', 110.0000,1,     0.000,     0.000,   5,   1,1.05152, -10.9303,   1
 5462,'WOODLAND', 220.0000,1,     0.000,     0.000,   2,   1,1.07189,  -2.4508,   1
 5464,'WOODLAND', 380.0000,1,     0.000,     0.000,   2,   1,1.02388,   1.6770,   1
 5481,'WHITEGAT', 110.0000,1,     0.000,     0.000,   3,   3,1.06339,  -9.4404,   1
 5501,'WEXFORD ', 110.0000,1,     0.000,     0.000,   6,   1,1.05007, -10.8214,   1
 5521,'WOLFE TO', 110.0000,1,     0.000,     0.000,   1,   1,1.05095,  -6.7105,   2
10204,'ARDNACRU',  38.0000,2,     0.000,     0.000,   7,   1,1.04418, -11.2698,   2
10205,'ARDNACRU',  38.0000,1,     0.000,     0.000,   7,   1,1.00400, -17.4955,   2
10271,'ARDNG1  ',  10.5000,2,     0.000,     0.000,   7,   1,1.01361,  -5.5067,   3
10272,'ARDNG2  ',  10.5000,2,     0.000,     0.000,   7,   1,1.00162,  -8.3385,   3
10273,'ARDNG3  ',  10.5000,2,     0.000,     0.000,   7,   1,1.00162,  -8.3385,   3
10274,'ARDNG4  ',  10.5000,2,     0.000,     0.000,   7,   1,0.98033,  -8.3385,   3
10421,'AGHADA  ',  10.5000,1,     0.000,     0.000,   3,   1,1.05736,  -7.6190,   1
10471,'AGH_G1  ',  20.0000,2,     0.000,     0.000,   3,   1,1.01866,  -1.6188,   3
10472,'AGH_G11 ',  10.5000,2,     0.000,     0.000,   3,   1,1.00000,  -7.0758,   3
10473,'AGH_G12 ',  10.5000,2,     0.000,     0.000,   3,   1,1.00000,  -7.0758,   3
10474,'AGH_G14 ',  10.5000,2,     0.000,     0.000,   3,   1,1.00000,  -7.0758,   3
10602,'ARIGNA  ',  20.0000,2,     0.000,     0.000,   9,   1,1.03708,  -8.9204,   2
10619,'ARIGNA_T', 110.0000,1,     0.000,     0.000,   9,   1,1.04916,  -8.1472,   1
10801,'AHANE   ',  11.0000,1,     0.000,     0.000,   7,   1,1.03617,  -9.4555,   2
11204,'ARKLOW  ',  38.0000,2,     0.000,     0.000,   6,   1,1.04933,  -6.6197,   2
11221,'ARKL    ',  10.5000,1,     0.000,     0.000,   6,   1,1.06280,  -5.1128,   1
11222,'ARKL    ',  10.5000,1,     0.000,     0.000,   6,   1,1.07491,  -5.1111,   1
11404,'ATHLONE ',  38.0000,1,     0.000,     0.000,   9,   1,1.05933, -10.7073,   2
11461,'ATHLONE_', 110.0000,1,     0.000,     0.000,   8,   1,1.06574,  -6.4535,   1
11671,'SEALROCK',  11.5000,2,     0.000,     0.000,   7,   1,1.01784,   2.6547,   1
11672,'SEALROCK',  11.5000,2,     0.000,     0.000,   7,   1,1.01784,   2.6547,   4
12001,'ARTANE  ',  10.0000,1,     0.000,     0.000,   1,   1,1.04506,  -8.0903,   2
12202,'ATHY    ',  20.0000,1,     0.000,     0.000,   8,   1,1.03712, -11.0239,   1
12804,'BALLYLIC',  38.0000,2,     0.000,     0.000,   3,   1,1.05557, -12.0427,   1
13001,'BALLYBEG',  10.0000,1,     0.000,     0.000,   6,   1,1.04651,  -7.8440,   2
13204,'BLAKE   ',  38.0000,1,     0.000,     0.000,   8,   1,1.04250,  -9.4199,   2
13219,'BLAKE T ', 110.0000,1,     0.000,     0.000,   8,   1,1.04849,  -5.9677,   1
13404,'BINBANE ',  38.0000,2,     0.000,     0.000,   9,   1,1.04553, -15.6678,   2
13601,'BALLYDIN',  10.0000,1,     0.000,     0.000,   5,   1,1.04112, -14.0941,   2
13604,'BALLYDIN',  38.0000,1,     0.000,     0.000,   5,   1,1.04654, -13.0438,   2
13802,'BARNAHEL',  20.0000,1,     0.000,     0.000,   3,   1,1.03630, -14.5366,   2
13804,'BARNAHEL',  38.0000,1,     0.000,     0.000,   3,   1,1.05138, -12.8451,   2
14002,'BELLACOR',  20.0000,2,     0.000,     0.000,   9,   1,1.03602, -11.7872,   2
14061,'BELL_CAP', 110.0000,1,     0.000,     0.000,   9,   1,1.04661, -10.1278,   1
14204,'BLACKROC',  38.0000,1,     0.000,     0.000,   2,   1,1.04092,  -9.0907,   2
14401,'BANDON  ',  10.0000,1,     0.000,     0.000,   3,   1,1.03597, -14.0121,   1
14404,'BANDON  ',  38.0000,2,     0.000,     0.000,   3,   1,1.04270, -15.3613,   2
14461,'BAN_CAP ', 110.0000,1,     0.000,     0.000,   3,   1,1.04935, -11.6665,   1
14604,'BARRYMOR',  38.0000,2,     0.000,     0.000,   5,   1,1.03453, -14.8109,   2
14804,'BUTLERST',  38.0000,1,     0.000,     0.000,   5,   1,1.03811, -15.1582,   2
15001,'BRINNY  ',  10.0000,1,     0.000,     0.000,   3,   1,1.04211, -12.8204,   5
15401,'BANOGE  ',  10.0000,1,     0.000,     0.000,   6,   1,1.05399,  -8.0313,   2
15801,'CABRA   ',  10.0000,1,     0.000,     0.000,   1,   1,1.03584,  -9.0710,   2
16021,'CLASH   ',  10.5000,1,     0.000,     0.000,   3,   1,1.06052,  -6.7268,   1
16202,'COOLROE ',  20.0000,1,     0.000,     0.000,   3,   1,1.04456, -11.8651,   2
16302,'CORDERRY',  20.0000,2,     0.000,     0.000,   9,   1,1.04784,  -7.1433,   1
16421,'CASH    ',  10.5000,1,     0.000,     0.000,   9,   1,1.05213,  -0.9460,   1
16422,'CASH2   ',  10.5000,1,     0.000,     0.000,   9,   1,1.05213,  -0.9523,   1
16423,'CASH3   ',  10.5000,1,     0.000,     0.000,   9,   1,1.06670,  -0.9340,   1
16461,'CASH_CAP', 110.0000,1,     0.000,     0.000,   9,   1,1.06740,  -3.5248,   1
16604,'CASTLEBA',  38.0000,2,     0.000,     0.000,   9,   1,1.03955, -13.1517,   2
16661,'CBAR_CAP', 110.0000,1,     0.000,     0.000,   9,   1,1.05408,  -9.1611,   1
16662,'CBAR_SVC', 110.0000,1,     0.000,     0.000,   9,   1,1.05434,  -9.1611,   1
16873,'CDRDG3  ',  10.5000,2,     0.000,     0.000,   3,   1,1.00080, -10.2108,   3
17004,'CATH_FAL',  38.0000,2,     0.000,     0.000,   9,   1,1.04622, -12.1891,   2
17061,'CATH_CAP', 110.0000,1,     0.000,     0.000,   9,   1,1.04016, -10.2420,   1
17073,'CATHG3  ',  10.5000,2,     0.000,     0.000,   9,   1,1.00450,  -8.7578,   3
17074,'CATHG4  ',  10.5000,2,     0.000,     0.000,   9,   1,0.99095, -10.2420,   3
17204,'CAHIR   ',  38.0000,1,     0.000,     0.000,   5,   1,1.04446, -14.7067,   2
17261,'CAHR_CAP', 110.0000,1,     0.000,     0.000,   5,   1,1.05998, -12.9973,   1
17404,'CARRICKM',  38.0000,1,     0.000,     0.000,   2,   1,1.03881, -10.7415,   2
17421,'CMIN1   ',  10.5000,1,     0.000,     0.000,   2,   1,1.06974,  -2.9974,   2
17422,'CMIN2   ',  10.5000,1,     0.000,     0.000,   2,   1,1.06974,  -2.9974,   2
17431,'CKMN_PST', 220.0000,1,     0.000,     0.000,   2,   1,1.07467,  -3.4156,   1
17462,'CKM_SR  ', 220.0000,1,     0.000,     0.000,   2,   1,1.07314,  -2.3270,   1
17671,'CLIFG1  ',  10.5000,2,     0.000,     0.000,   9,   1,1.01967,  -8.3118,   3
17672,'CLIFG2  ',  10.5000,2,     0.000,     0.000,   9,   1,0.99181, -10.2043,   3
17802,'CASTLEFA',  20.0000,1,     0.000,     0.000,   7,   1,1.03438,  -8.2504,   1
18004,'COOKSTOW',  38.0000,1,     0.000,     0.000,   1,   1,1.04997, -12.7450,   2
18019,'COOKST T', 110.0000,1,     0.000,     0.000,   1,   2,1.05786,  -7.0312,   2
18204,'CLOON   ',  38.0000,1,     0.000,     0.000,   9,   1,1.03764,  -9.7149,   2
18402,'CRANE   ',  20.0000,1,     0.000,     0.000,   6,   1,1.04279, -10.4307,   2
18404,'CRANE   ',  38.0000,2,     0.000,     0.000,   6,   1,1.03501, -12.1629,   2
18604,'CARRICK ',  38.0000,1,     0.000,     0.000,   9,   1,1.04550, -11.2933,   2
18701,'COLLEGE ',  10.0000,1,     0.000,     0.000,   2,   1,1.06425,  -5.3797,   1
18804,'CHARLEVI',  38.0000,1,     0.000,     0.000,   3,   1,1.03946, -13.3357,   2
19004,'CARLOW  ',  38.0000,2,     0.000,     0.000,   8,   1,1.04703, -12.2165,   2
19204,'COW_CROS',  38.0000,1,     0.000,     0.000,   3,   1,1.04799, -13.7249,   2
19302,'CUNGHILL',  20.0000,1,     0.000,     0.000,   9,   1,1.00795,  -7.6989,   4
19402,'CUNGHILL',  20.0000,2,     0.000,     0.000,   9,   1,1.00000,  -5.4927,   1
19471,'EDENDERR',  11.0000,2,     0.000,     0.000,   8,   1,1.00857,   4.3444,   4
19601,'CASTLEVI',  10.0000,1,     0.000,     0.000,   3,   1,1.04847, -12.3399,   2
20021,'CULLENAG',  10.5000,1,     0.000,     0.000,   5,   1,1.06222,  -8.9525,   1
20201,'CITY WES',  10.0000,1,     0.000,     0.000,   1,   1,1.05059,  -8.2406,   2
20421,'CORDUFF ',  10.5000,1,     0.000,     0.000,   2,   1,1.07070,  -3.3668,   1
20422,'CORDUFF ',  10.5000,1,     0.000,     0.000,   2,   1,1.07070,  -3.3668,   1
21004,'DUNDALK ',  38.0000,1,     0.000,     0.000,  10,   1,1.05353, -13.3867,   2
21204,'DRUMLINE',  38.0000,1,     0.000,     0.000,   7,   1,1.03689, -12.9621,   2
21404,'DUNGARVA',  38.0000,1,     0.000,     0.000,   5,   1,1.02873, -13.7854,   2
21604,'DOON    ',  38.0000,1,     0.000,     0.000,   5,   1,1.03771, -19.3813,   2
21661,'DOON_CAP', 110.0000,1,     0.000,     0.000,   5,   1,1.05166, -13.2008,   1
21804,'DRYBRIDG',  38.0000,1,     0.000,     0.000,  10,   1,1.05538, -13.1267,   2
22021,'DUNS    ',  17.5000,1,     0.000,     0.000,   2,   1,1.07976,   1.0488,   1
22204,'DUNMANWA',  38.0000,2,     0.000,     0.000,   3,   1,1.03606, -14.5517,   2
22261,'DUNM_CAP', 110.0000,1,     0.000,     0.000,   3,   1,1.04311, -11.6231,   1
22404,'DALLOW  ',  38.0000,1,     0.000,     0.000,   5,   1,1.04050,  -7.6087,   2
22419,'DALLOW T', 110.0000,1,     0.000,     0.000,   5,   1,1.06276,  -5.1938,   1
22804,'DALTON  ',  38.0000,1,     0.000,     0.000,   9,   1,1.03814, -11.0791,   2
22861,'DALT_CAP', 110.0000,1,     0.000,     0.000,   9,   1,1.06031,  -7.8940,   1
23001,'DUNFIRTH',  10.0000,1,     0.000,     0.000,   2,   1,1.05763,  -8.7364,   2
23019,'DUNFIR_T', 110.0000,1,     0.000,     0.000,   2,   1,1.04752,  -6.9008,   1
23604,'ENNIS   ',  38.0000,1,     0.000,     0.000,   7,   1,1.03213, -12.8022,   2
24804,'FASSAROE',  38.0000,1,     0.000,     0.000,   2,   1,1.03775,  -9.4648,   2
25221,'FLAG1   ',  10.5000,1,     0.000,     0.000,   9,   1,1.07102,  -5.8906,   1
25222,'FLAG2   ',  10.5000,1,     0.000,     0.000,   9,   1,1.07094,  -5.9013,   1
25404,'FRANCIS ',  38.0000,1,     0.000,     0.000,   1,   1,1.03542, -12.3277,   2
25604,'FINGLAS ',  38.0000,1,     0.000,     0.000,   2,   1,1.05224, -13.3763,   1
25621,'FING1   ',  10.5000,1,     0.000,     0.000,   2,   1,1.06523,  -3.5835,   1
25622,'FING2   ',  10.5000,1,     0.000,     0.000,   2,   1,1.06519,  -3.5835,   1
25623,'FING3   ',  10.5000,1,     0.000,     0.000,   2,   1,1.06533,  -3.5834,   1
25624,'FING4   ',  10.5000,4,     0.000,     0.000,   2,   1,1.00000,   0.0000,   1
26802,'GILRA   ',  20.0000,1,     0.000,     0.000,   9,   1,1.05225, -10.1957,   5
27004,'GLASMORE',  38.0000,1,     0.000,     0.000,   2,   1,1.04131, -10.4093,   2
27204,'GRIFFINR',  38.0000,2,     0.000,     0.000,   2,   1,1.04845, -10.2688,   2
27219,'GRFRAT T', 110.0000,1,     0.000,     0.000,   2,   1,1.06078,  -5.9174,   2
27404,'GREAT IS',  38.0000,1,     0.000,     0.000,   6,   1,1.05276, -13.3245,   2
27421,'GISL    ',  10.5000,1,     0.000,     0.000,   6,   1,1.07181,  -8.4385,   1
27422,'GISL    ',  10.5000,1,     0.000,     0.000,   6,   1,1.07189,  -8.4334,   1