<!DOCTYPE HTML PUBLIC "-//W3C//DTD HTML 4.0 Transitional//EN">
<!-- saved from url=(0069)http://www.eirgrid.com/EirgridPortal/uploads/Publications/s10_web.raw -->
<HTML><HEAD>
<META http-equiv=Content-Type content="text/html; charset=windows-1252">
<META content="MSHTML 6.00.2900.3492" name=GENERATOR></HEAD>
<BODY><PRE>0,   100.00          / PSS/E-29.4    THU, JUL 22 2004  15:53
ESB NATIONAL GRID FORECAST STATEMENT 2004-2010
BASECASE SUMMER 2010
   10,'F_M_____',  38.0000,1,     0.000,     0.000,   1,   1,1.04372, -12.6661,   2
   11,'FMN_LOOP',  38.0000,1,     0.000,     0.000,   1,   1,1.04846, -10.7595,   2
   12,'BEDFORD ',  38.0000,1,     0.000,     0.000,   1,   1,1.05154, -13.4634,   2
   13,'M_R_____',  38.0000,1,     0.000,     0.000,   1,   1,1.04239, -13.3459,   2
   14,'F_I_____',  38.0000,1,     0.000,     0.000,   1,   1,1.03894, -14.0148,   2
   15,'I_M_____',  38.0000,1,     0.000,     0.000,   1,   1,1.03699, -12.8112,   2
   41,'TANEY   ', 110.0000,1,     0.000,     0.000,   1,   1,1.05245,  -7.7766,   1
   51,'MISERY H', 110.0000,1,     0.000,     0.000,   1,   1,1.06454,  -6.5057,   1
   52,'MISERY H',  38.0000,1,     0.000,     0.000,   1,   1,1.06454,  -6.5057,   1
 1021,'ARDNACRU', 110.0000,1,     0.000,     0.000,   7,   1,1.01800,  -7.5999,   1
 1041,'AGHADA  ', 110.0000,1,     0.000,     0.000,   3,   1,1.06416,  -8.7947,   1
 1042,'AGHADA  ', 220.0000,1,     0.000,     0.000,   3,   1,1.06300,  -6.2941,   1
 1061,'ARIGNA  ', 110.0000,1,     0.000,     0.000,   9,   1,1.04755,  -9.2567,   2
 1081,'AHANE   ', 110.0000,1,     0.000,     0.000,   7,   1,1.03423,  -7.2487,   2
 1101,'ANNER   ', 110.0000,1,     0.000,     0.000,   5,   3,1.03910, -13.5989,   5
 1121,'ARKLOW  ', 110.0000,1,     0.000,     0.000,   6,   1,1.05882,  -6.6276,   1
 1122,'ARKLOW  ', 220.0000,1,     0.000,     0.000,   6,   1,1.05320,  -5.2102,   1
 1141,'ATHLONE ', 110.0000,1,     0.000,     0.000,   8,   1,1.05922,  -7.0466,   1
 1151,'ARKLOW B', 110.0000,2,     0.000,     0.000,   6,   1,1.06208,  -6.3657,   1
 1161,'AUGHINIS', 110.0000,1,     0.000,     0.000,   7,   3,1.07500,  -0.5938,   1
 1171,'SEALROCK', 110.0000,1,     0.000,     0.000,   7,   1,1.07589,  -0.5437,   1
 1181,'ARVA    ', 110.0000,1,     0.000,     0.000,  10,   1,1.02652, -10.3676,   1
 1191,'SEALROCK', 110.0000,1,     0.000,     0.000,   7,   1,1.07589,  -0.5437,   1
 1201,'ARTANE  ', 110.0000,1,     0.000,     0.000,   1,   1,1.06567,  -7.3133,   2
 1221,'ATHY    ', 110.0000,1,     0.000,     0.000,   8,   1,1.04577,  -8.4805,   1
 1231,'BALLYWAT', 110.0000,2,     0.000,     0.000,   6,   1,1.03928, -10.0035,   1
 1251,'BOOLTIAG', 110.0000,2,     0.000,     0.000,   7,   1,1.00604,  -7.2927,   1
 1281,'BALLYLIC', 110.0000,1,     0.000,     0.000,   3,   1,1.03519, -11.3169,   2
 1301,'BALLYBEG', 110.0000,1,     0.000,     0.000,   6,   1,1.05316,  -6.6231,   1
 1321,'BLAKE   ', 110.0000,1,     0.000,     0.000,   8,   1,1.04296,  -6.7812,   2
 1341,'BINBANE ', 110.0000,1,     0.000,     0.000,   9,   1,1.00544, -13.0950,   2
 1361,'BALLYDIN', 110.0000,1,     0.000,     0.000,   5,   1,1.04174, -12.8924,   1
 1381,'BARNAHEL', 110.0000,1,     0.000,     0.000,   3,   1,1.05970,  -9.7397,   1
 1401,'BELLACOR', 110.0000,1,     0.000,     0.000,   9,   1,1.04495, -11.3811,   1
 1421,'BLACKROC', 110.0000,1,     0.000,     0.000,   2,   2,1.05453,  -5.7705,   2
 1441,'BANDON  ', 110.0000,1,     0.000,     0.000,   3,   1,1.04032, -11.3757,   1
 1461,'BARRYMOR', 110.0000,1,     0.000,     0.000,   5,   1,1.04863, -11.3766,   2
 1481,'BUTLERST', 110.0000,1,     0.000,     0.000,   5,   1,1.04389, -11.7023,   1
 1501,'BRINNY  ', 110.0000,1,     0.000,     0.000,   3,   1,1.04018, -11.3843,   5
 1511,'BRINNY  ', 110.0000,1,     0.000,     0.000,   3,   1,1.04018, -11.3839,   5
 1541,'BANOGE  ', 110.0000,1,     0.000,     0.000,   6,   1,1.04340,  -8.6527,   1
 1581,'CABRA   ', 110.0000,1,     0.000,     0.000,   1,   2,1.06494,  -7.3461,   2
 1601,'CLASHAVO', 110.0000,1,     0.000,     0.000,   3,   1,1.05310,  -8.4217,   1
 1602,'CLASHAVO', 220.0000,1,     0.000,     0.000,   3,   1,1.04724,  -4.3110,   1
 1621,'COOLROE ', 110.0000,1,     0.000,     0.000,   3,   1,1.05022, -10.0983,   1
 1631,'CORDERRY', 110.0000,1,     0.000,     0.000,   9,   1,1.04607,  -9.5543,   1
 1641,'CASHLA  ', 110.0000,1,     0.000,     0.000,   9,   1,1.05963,  -3.4111,   1
 1642,'CASHLA  ', 220.0000,1,     0.000,     0.000,   9,   1,1.06047,   0.5604,   1
 1661,'CASTLEBA', 110.0000,1,     0.000,     0.000,   9,   1,1.05699, -10.2703,   1
 1681,'CARRIGAD', 110.0000,1,     0.000,     0.000,   3,   1,1.05060,  -9.6561,   1
 1701,'CATH_FAL', 110.0000,1,     0.000,     0.000,   9,   1,1.03500, -11.9139,   1
 1721,'CAHIR   ', 110.0000,1,     0.000,     0.000,   5,   1,1.04649, -13.1936,   1
 1741,'CARRICKM', 110.0000,1,     0.000,     0.000,   2,   2,1.05552,  -5.6704,   2
 1742,'CARRICKM', 220.0000,1,     0.000,     0.000,   2,   2,1.07252,  -2.6207,   1
 1761,'CLIFF   ', 110.0000,1,     0.000,     0.000,   9,   1,1.03640, -11.8847,   1
 1781,'CASTLEFA', 110.0000,1,     0.000,     0.000,   7,   3,1.07461,  -0.6119,   5
 1791,'CASTLEFA', 110.0000,1,     0.000,     0.000,   7,   3,1.07461,  -0.6119,   5
 1801,'COOKSTOW', 110.0000,1,     0.000,     0.000,   1,   2,1.04985,  -7.7805,   2
 1821,'CLOON   ', 110.0000,1,     0.000,     0.000,   9,   1,1.05571,  -6.0116,   2
 1841,'CRANE   ', 110.0000,1,     0.000,     0.000,   6,   1,1.03535, -10.4456,   1
 1861,'CARRICK ', 110.0000,1,     0.000,     0.000,   9,   1,1.05288,  -8.8222,   1
 1871,'COLLEGE ', 110.0000,1,     0.000,     0.000,   2,   1,1.06190,  -5.9273,   1
 1881,'CHARLEVI', 110.0000,1,     0.000,     0.000,   3,   1,1.01467,  -9.7162,   1
 1901,'CARLOW  ', 110.0000,1,     0.000,     0.000,   8,   1,1.05416,  -9.5425,   1
 1921,'COW CROS', 110.0000,1,     0.000,     0.000,   3,   1,1.05963,  -9.6516,   1
 1931,'CUNGHILL', 110.0000,1,     0.000,     0.000,   9,   1,1.04160, -10.6613,   4
 1941,'CUSHALIN', 110.0000,1,     0.000,     0.000,   8,   1,1.07500,  -3.2352,   1
 1961,'CASTLEVI', 110.0000,1,     0.000,     0.000,   3,   1,1.06053,  -9.6870,   1
 1981,'CORRACLA', 110.0000,1,     0.000,     0.000,   9,   1,1.03486, -11.7022,   1
 2001,'CULLENAG', 110.0000,1,     0.000,     0.000,   5,   1,1.05188, -11.2845,   1
 2002,'CULLENAG', 220.0000,1,     0.000,     0.000,   5,   1,1.02609,  -8.5190,   1
 2021,'CITY WES', 110.0000,1,     0.000,     0.000,   1,   1,1.05113,  -7.7179,   2
 2041,'CORDUFF ', 110.0000,1,     0.000,     0.000,   2,   1,1.06276,  -5.8559,   1
 2042,'CORDUFF ', 220.0000,1,     0.000,     0.000,   2,   1,1.07238,  -2.9984,   1
 2081,'DUNKETTL', 110.0000,1,     0.000,     0.000,   3,   1,1.06053,  -9.6870,   5
 2101,'DUNDALK ', 110.0000,1,     0.000,     0.000,  10,   1,1.03328,  -9.2803,   1
 2121,'DRUMLINE', 110.0000,1,     0.000,     0.000,   7,   1,1.00144,  -8.1225,   1
 2141,'DUNGARVA', 110.0000,1,     0.000,     0.000,   5,   1,1.04116, -11.4518,   1
 2161,'DOON    ', 110.0000,1,     0.000,     0.000,   5,   1,1.03968, -13.5649,   1
 2181,'DRYBRIDG', 110.0000,1,     0.000,     0.000,  10,   1,1.03921,  -8.6273,   1
 2202,'DUNSTOWN', 220.0000,1,     0.000,     0.000,   2,   1,1.07123,  -2.3673,   1
 2204,'DUNSTOWN', 380.0000,1,     0.000,     0.000,   2,   1,1.02091,   2.0695,   1
 2221,'DUNMANWA', 110.0000,1,     0.000,     0.000,   3,   1,1.03562, -11.3093,   1
 2231,'DERRYBRI', 110.0000,2,     0.000,     0.000,   9,   1,1.04178,  -5.1911,   1
 2241,'DALLOW  ', 110.0000,1,     0.000,     0.000,   5,   1,1.04956,  -5.7312,   2
 2261,'DERRYIRO', 110.0000,1,     0.000,     0.000,   2,   1,1.03066,  -8.2471,   1
 2281,'DALTON  ', 110.0000,1,     0.000,     0.000,   9,   1,1.05796,  -8.6511,   1
 2301,'DUNFIRTH', 110.0000,1,     0.000,     0.000,   2,   1,1.04126,  -7.5739,   2
 2321,'DRUMKEEN', 110.0000,1,     0.000,     0.000,   9,   1,1.02480, -12.7939,   1
 2361,'ENNIS   ', 110.0000,1,     0.000,     0.000,   7,   1,1.00774,  -7.4229,   1
 2481,'FASS EAS', 110.0000,1,     0.000,     0.000,   2,   2,1.04970,  -5.9414,   2
 2491,'FASS WES', 110.0000,1,     0.000,     0.000,   2,   2,1.04953,  -5.9386,   2
 2521,'FLAGFORD', 110.0000,1,     0.000,     0.000,   9,   1,1.05672,  -8.6450,   1
 2522,'FLAGFORD', 220.0000,1,     0.000,     0.000,   9,   1,1.02383,  -5.8231,   1
 2541,'FRN ST A', 110.0000,1,     0.000,     0.000,   1,   2,1.06322,  -6.6058,   2
 2551,'FRN ST B', 110.0000,1,     0.000,     0.000,   1,   2,1.05533,  -7.4742,   2
 2561,'FIN_URBA', 110.0000,1,     0.000,     0.000,   2,   2,1.06774,  -7.1318,   1
 2562,'FINGLAS ', 220.0000,2,     0.000,     0.000,   2,   2,1.07429,  -2.8982,   1
 2571,'FIN_RURA', 110.0000,1,     0.000,     0.000,   2,   2,1.06157,  -5.9551,   1
 2681,'GILRA   ', 110.0000,1,     0.000,     0.000,   9,   3,1.05787,  -8.9440,   2
 2701,'GLASMORE', 110.0000,1,     0.000,     0.000,   2,   2,1.05837,  -7.9562,   2
 2721,'GRIFFINR', 110.0000,1,     0.000,     0.000,   2,   2,1.05574,  -6.5427,   2
 2731,'GRIFFINR', 110.0000,1,     0.000,     0.000,   2,   1,1.05605,  -6.5218,   2
 2741,'GREAT IS', 110.0000,1,     0.000,     0.000,   6,   1,1.05110, -11.1866,   1
 2742,'GREAT IS', 220.0000,1,     0.000,     0.000,   6,   1,1.02452,  -8.1155,   1
 2761,'GRANGE  ', 110.0000,1,     0.000,     0.000,   1,   2,1.06641,  -7.3027,   2
 2781,'GALWAY  ', 110.0000,1,     0.000,     0.000,   9,   1,1.04720,  -3.9950,   1
 2801,'GOLAGH  ', 110.0000,1,     0.000,     0.000,   9,   1,1.02937, -12.2485,   1
 2821,'GORTAWEE', 110.0000,1,     0.000,     0.000,   9,   1,1.03408, -11.6412,   1
 2841,'GORMAN  ', 110.0000,1,     0.000,     0.000,  10,   1,1.05318,  -8.8548,   1
 2842,'GORMAN  ', 220.0000,1,     0.000,     0.000,  10,   1,1.02353,  -5.7059,   1
 2861,'GRANGE C', 110.0000,1,     0.000,     0.000,   1,   1,1.05271,  -7.7202,   2
 2881,'GLENLARA', 110.0000,1,     0.000,     0.000,   3,   1,1.00357, -10.3479,   2
 2921,'HAULBOWL', 110.0000,1,     0.000,     0.000,   3,   3,1.06107,  -9.6614,   5
 2931,'HAULBOWL', 110.0000,1,     0.000,     0.000,   3,   3,1.05971,  -9.7399,   5
 2941,'HAROLDS ', 110.0000,1,     0.000,     0.000,   1,   2,1.06374,  -6.5640,   2
 2962,'HUNTSTOW', 220.0000,1,     0.000,     0.000,   2,   1,1.07495,  -2.7991,   1
 2981,'HARNETTS', 110.0000,1,     0.000,     0.000,   3,   1,1.04966,  -9.7148,   2
 3061,'INISCARR', 110.0000,1,     0.000,     0.000,   3,   1,1.05091,  -9.9726,   1
 3081,'INCHICOR', 110.0000,1,     0.000,     0.000,   1,   2,1.05830,  -7.2874,   2
 3082,'INCHICOR', 220.0000,1,     0.000,     0.000,   2,   2,1.07236,  -3.2032,   1
 3101,'IKERRIN ', 110.0000,1,     0.000,     0.000,   5,   1,1.01996, -11.3030,   2
 3122,'IRISHTOW', 220.0000,1,     0.000,     0.000,   2,   1,1.07600,  -2.2999,   1
 3201,'KNOCKRAH', 110.0000,1,     0.000,     0.000,   3,   1,1.06375,  -9.5280,   1
 3202,'KNOCKRAH', 220.0000,1,     0.000,     0.000,   3,   1,1.05111,  -6.7121,   1
 3221,'KILBARRY', 110.0000,1,     0.000,     0.000,   3,   1,1.05268, -10.1009,   1
 3241,'KILTEEL ', 110.0000,1,     0.000,     0.000,   8,   1,1.04190,  -6.9100,   2
 3261,'KILKENNY', 110.0000,1,     0.000,     0.000,   8,   1,1.01279, -12.1246,   1
 3281,'KILLONAN', 110.0000,1,     0.000,     0.000,   7,   1,1.03478,  -7.2087,   1
 3282,'KILLONAN', 220.0000,1,     0.000,     0.000,   7,   1,1.04635,  -3.3619,   1
 3301,'KNOCKERA', 110.0000,1,     0.000,     0.000,   7,   1,1.01265,  -6.8465,   1
 3321,'KNOCKUMB', 110.0000,1,     0.000,     0.000,  10,   3,1.04517,  -9.2842,   5
 3341,'KELLIS  ', 110.0000,1,     0.000,     0.000,   8,   1,1.05969,  -9.4033,   1
 3342,'KELLIS  ', 220.0000,1,     0.000,     0.000,   8,   1,1.02838,  -6.3166,   1
 3361,'KILTOY  ', 110.0000,1,     0.000,     0.000,   9,   3,1.01878, -13.3720,   5
 3371,'KILTOY  ', 110.0000,1,     0.000,     0.000,   9,   3,1.01869, -13.3773,   5
 3381,'KINNEGAD', 110.0000,1,     0.000,     0.000,   2,   1,1.03311,  -8.1462,   1
 3401,'KILLOTER', 110.0000,1,     0.000,     0.000,   5,   1,1.04486, -11.6595,   1
 3421,'KILMORE ', 110.0000,1,     0.000,     0.000,   1,   1,1.06691,  -7.2464,   2
 3441,'KILMURRY', 110.0000,1,     0.000,     0.000,   8,   1,1.04271, -11.4943,   1
 3501,'LANESBOR', 110.0000,1,     0.000,     0.000,   9,   1,1.07000,  -6.8850,   1
 3521,'LOUTH   ', 110.0000,1,     0.000,     0.000,  10,   1,1.05301,  -8.3661,   1
 3522,'LOUTH   ', 220.0000,1,     0.000,     0.000,  10,   1,1.02074,  -6.1566,   1
 3541,'LIMERICK', 110.0000,1,     0.000,     0.000,   7,   1,1.02901,  -6.7992,   1
 3561,'LISDRUM ', 110.0000,1,     0.000,     0.000,  10,   1,1.00792, -10.4122,   1
 3581,'LETTERKE', 110.0000,1,     0.000,     0.000,   9,   1,1.01990, -13.3010,   1
 3601,'LIBERTY ', 110.0000,1,     0.000,     0.000,   3,   1,1.05579, -10.0360,   2
 3611,'LIBERTY ', 110.0000,1,     0.000,     0.000,   3,   1,1.05594, -10.0221,   2
 3621,'LISHEEN ', 110.0000,1,     0.000,     0.000,   5,   1,1.01920, -13.5888,   1
 3761,'MACETOWN', 110.0000,1,     0.000,     0.000,   2,   2,1.05892,  -6.1501,   1
 3781,'MCDERMOT', 110.0000,1,     0.000,     0.000,   1,   2,1.06477,  -7.3581,   2
 3801,'MIDLETON', 110.0000,1,     0.000,     0.000,   3,   1,1.05573,  -9.7135,   1
 3821,'MEATH HI', 110.0000,1,     0.000,     0.000,  10,   1,1.04079,  -9.0704,   2
 3841,'MAYNOOTH', 110.0000,1,     0.000,     0.000,   2,   2,1.05721,  -6.4098,   1
 3842,'MAYNOOTH', 220.0000,1,     0.000,     0.000,   2,   2,1.06517,  -3.3806,   1
 3861,'MILLTOWN', 110.0000,1,     0.000,     0.000,   1,   2,1.06465,  -6.4572,   2
 3871,'MILLTOWN', 110.0000,1,     0.000,     0.000,   1,   2,1.05287,  -7.7482,   2
 3881,'MACROOM ', 110.0000,1,     0.000,     0.000,   3,   1,1.05052,  -9.6420,   1
 3901,'MONETEEN', 110.0000,1,     0.000,     0.000,   7,   1,1.03625,  -5.7356,   1
 3941,'MONEYPOI', 110.0000,1,     0.000,     0.000,   7,   1,1.00216,  -7.4346,   1
 3942,'MONEYPOI', 220.0000,1,     0.000,     0.000,   7,   1,1.07157,   5.4334,   1
 3944,'MNYPG1G3', 380.0000,1,     0.000,     6.000,   2,   1,1.07500,   8.8531,   1
 3954,'MNYPG2  ', 380.0000,1,     0.000,     6.000,   7,   1,1.07500,  10.1598,   1
 3961,'MARINA  ', 110.0000,1,     0.000,     0.000,   3,   1,1.05600, -10.0180,   1
 3981,'MUNGRET ', 110.0000,1,     0.000,     0.000,   7,   3,1.03606,  -5.7468,   5
 3991,'MUNGRET ', 110.0000,1,     0.000,     0.000,   7,   3,1.03606,  -5.7463,   5
 4001,'MULLINGA', 110.0000,1,     0.000,     0.000,   9,   1,1.03761,  -7.9689,   1
 4021,'MALLOW  ', 110.0000,1,     0.000,     0.000,   3,   1,1.02374, -10.3111,   1
 4041,'MOY     ', 110.0000,1,     0.000,     0.000,   9,   1,1.04025, -12.0757,   1
 4061,'MULLAGHA', 110.0000,1,     0.000,     0.000,  10,   1,1.03951,  -9.0013,   2
 4071,'MEENTYCA', 110.0000,2,     0.000,     0.000,   9,   1,1.02669, -12.5620,   1
 4081,'MONREAD ', 110.0000,1,     0.000,     0.000,   8,   1,1.04053,  -6.8686,   1
 4201,'NEWBRIDG', 110.0000,1,     0.000,     0.000,   8,   1,1.04234,  -6.5489,   1
 4221,'NAVAN   ', 110.0000,1,     0.000,     0.000,  10,   1,1.04866,  -9.0793,   1
 4242,'NORTH WA', 220.0000,1,     0.000,     0.000,   2,   2,1.07568,  -3.0684,   1
 4261,'NENAGH  ', 110.0000,1,     0.000,     0.000,   7,   1,1.01679,  -8.1951,   1
 4281,'NANGOR  ', 110.0000,1,     0.000,     0.000,   1,   1,1.05247,  -7.7371,   1
 4341,'OLDCOURT', 110.0000,1,     0.000,     0.000,   3,   3,1.05964,  -9.6517,   5
 4351,'OLDCOURT', 110.0000,1,     0.000,     0.000,   3,   3,1.05964,  -9.6517,   5
 4361,'OUGHTRAG', 110.0000,1,     0.000,     0.000,   7,   1,1.02139,  -4.7864,   2
 4382,'OLDSTREE', 220.0000,1,     0.000,     0.000,   9,   1,1.07083,   5.9726,   1
 4384,'OLDSTREE', 380.0000,1,     0.000,     0.000,   9,   1,1.06085,   5.7207,   1
 4441,'POLLAPHU', 110.0000,1,     0.000,     0.000,   8,   1,1.05000, -10.1048,   1
 4451,'POOLBEG ', 110.0000,1,     0.000,     0.000,   1,   1,1.06574,  -6.3831,   2
 4461,'POOLBEG ', 110.0000,1,     0.000,     0.000,   1,   1,1.06618,  -6.2782,   2
 4462,'POOLBEG ', 220.0000,1,     0.000,     0.000,   2,   2,1.07500,  -3.1824,   1
 4471,'POOLBEG ', 110.0000,1,     0.000,     0.000,   1,   1,1.06617,  -6.2814,   2
 4481,'PORTLAOI', 110.0000,1,     0.000,     0.000,   8,   1,1.04803,  -6.7383,   1
 4501,'PLATIN  ', 110.0000,1,     0.000,     0.000,  10,   3,1.04169,  -8.4676,   1
 4522,'PROSPECT', 220.0000,1,     0.000,     0.000,   7,   1,1.07366,   4.2129,   1
 4621,'RYEBROOK', 110.0000,1,     0.000,     0.000,   2,   3,1.04847,  -6.9603,   1
 4651,'RINGSEND', 110.0000,1,     0.000,     0.000,   1,   2,1.06573,  -6.3829,   2
 4681,'RATHKEAL', 110.0000,1,     0.000,     0.000,   7,   1,1.03317,  -4.2382,   1
 4701,'RICHMOND', 110.0000,1,     0.000,     0.000,   9,   1,1.05654,  -7.4352,   2
 4721,'RAFFEEN ', 110.0000,1,     0.000,     0.000,   3,   1,1.06104,  -9.6610,   1
 4722,'RAFFEEN ', 220.0000,1,     0.000,     0.000,   3,   1,1.05635,  -7.3694,   1
 4741,'RINAWADE', 110.0000,1,     0.000,     0.000,   2,   3,1.05140,  -6.7908,   1
 4761,'RINGASKI', 110.0000,1,     0.000,     0.000,   3,   1,1.06087,  -9.6706,   2
 4781,'RATRUSSA', 110.0000,1,     0.000,     0.000,  10,   1,1.02128,  -9.2742,   1
 4901,'SHELTON ', 110.0000,1,     0.000,     0.000,   6,   3,1.05882,  -6.6277,   5
 4911,'SHELTON ', 110.0000,1,     0.000,     0.000,   6,   3,1.05882,  -6.6277,   5
 4941,'SHANNONB', 110.0000,1,     0.000,     0.000,   5,   1,1.06034,  -5.0338,   1
 4942,'SHANNONB', 220.0000,1,     0.000,     0.000,   5,   1,1.07500,  -4.1551,   1
 4961,'SHANKILL', 110.0000,1,     0.000,     0.000,  10,   1,1.00252, -10.5589,   1
 4981,'SLIGO   ', 110.0000,1,     0.000,     0.000,   9,   1,1.04118, -10.2828,   1
 5001,'SOMERSET', 110.0000,1,     0.000,     0.000,   9,   1,1.04847,  -5.1198,   2
 5022,'SHELLYBA', 220.0000,1,     0.000,     0.000,   2,   2,1.07644,  -2.2574,   1
 5031,'STEVENST', 110.0000,1,     0.000,     0.000,   2,   1,1.05817,  -7.8624,   2
 5041,'SRANANAG', 110.0000,1,     0.000,     0.000,   9,   1,1.04416,  -9.8805,   1
 5042,'SRANANAG', 220.0000,1,     0.000,     0.000,   9,   1,1.02247,  -7.6050,   1
 5061,'STRATFOR', 110.0000,1,     0.000,     0.000,   8,   1,1.04534, -10.1233,   2
 5071,'SHANEMOR', 110.0000,1,     0.000,     0.000,   9,   1,1.03893,  -5.5346,   1
 5141,'TARBERT ', 110.0000,1,     0.000,     0.000,   7,   1,1.06020,   0.2253,   1
 5142,'TARBERT ', 220.0000,1,     0.000,     0.000,   7,   1,1.07500,   3.4993,   1
 5172,'TYNAGH  ', 220.0000,1,     0.000,     0.000,   9,   1,1.07500,   6.0466,   1
 5181,'TRABEG  ', 110.0000,1,     0.000,     0.000,   3,   1,1.05580, -10.0312,   1
 5202,'TURLOUGH', 220.0000,1,     0.000,     0.000,   2,   1,1.08030,  -2.1005,   1
 5221,'TULLABRA', 110.0000,1,     0.000,     0.000,   7,   1,1.00149,  -7.4533,   2
 5241,'TAWN_A  ', 110.0000,1,     0.000,     0.000,   9,   3,1.04029, -12.0767,   2
 5251,'TAWN_B  ', 110.0000,1,     0.000,     0.000,   9,   3,1.04029, -12.0767,   2
 5261,'TRIEN   ', 110.0000,1,     0.000,     0.000,   7,   1,1.05751,  -1.8882,   1
 5281,'TRALEE  ', 110.0000,1,     0.000,     0.000,   7,   1,1.04460,  -2.8768,   1
 5301,'THURLES ', 110.0000,1,     0.000,     0.000,   5,   1,1.02327, -13.3360,   1
 5321,'THORNSBE', 110.0000,1,     0.000,     0.000,   2,   1,1.00837,  -9.1369,   2
 5341,'TONROE  ', 110.0000,1,     0.000,     0.000,   9,   1,1.04524,  -9.1749,   2
 5361,'TRILLICK', 110.0000,1,     0.000,     0.000,   9,   1,1.01869, -12.7786,   2
 5381,'TIPPERAR', 110.0000,1,     0.000,     0.000,   5,   1,1.03307, -11.3061,   1
 5441,'WATERFOR', 110.0000,1,     0.000,     0.000,   5,   1,1.04683, -11.5460,   1
 5462,'WOODLAND', 220.0000,1,     0.000,     0.000,   2,   1,1.06979,  -2.6981,   1
 5464,'WOODLAND', 380.0000,1,     0.000,     0.000,   2,   1,1.02203,   1.6922,   1
 5481,'WHITEGAT', 110.0000,1,     0.000,     0.000,   3,   3,1.06255,  -9.0157,   1
 5501,'WEXFORD ', 110.0000,1,     0.000,     0.000,   6,   1,1.03795, -11.7415,   1
 5521,'WOLFE TO', 110.0000,1,     0.000,     0.000,   1,   1,1.06438,  -7.3848,   2
10204,'ARDNACRU',  38.0000,2,     0.000,     0.000,   7,   1,1.02646, -11.0272,   2
10205,'ARDNACRU',  38.0000,1,     0.000,     0.000,   7,   1,1.37353, -13.2690,   2
10271,'ARDNG1  ',  10.5000,2,     0.000,     0.000,   7,   1,0.98906,  -4.6090,   3
10272,'ARDNG2  ',  10.5000,2,     0.000,     0.000,   7,   1,0.98995,  -7.5999,   3
10273,'ARDNG3  ',  10.5000,2,     0.000,     0.000,   7,   1,0.98995,  -7.5999,   3
10274,'ARDNG4  ',  10.5000,2,     0.000,     0.000,   7,   1,0.99189,  -7.5999,   3
10421,'AGHADA  ',  10.5000,1,     0.000,     0.000,   3,   1,1.06310,  -6.9197,   1
10471,'AGH_G1  ',  20.0000,2,     0.000,     0.000,   3,   1,1.00921,  -0.2364,   3
10472,'AGH_G11 ',  10.5000,2,     0.000,     0.000,   3,   1,0.98884,  -6.2941,   3
10473,'AGH_G12 ',  10.5000,2,     0.000,     0.000,   3,   1,0.98884,  -6.2941,   3
10474,'AGH_G14 ',  10.5000,2,     0.000,     0.000,   3,   1,0.98884,  -6.2941,   3
10602,'ARIGNA  ',  20.0000,2,     0.000,     0.000,   9,   1,1.05068, -10.2772,   2
10619,'ARIGNA_T', 110.0000,1,     0.000,     0.000,   9,   1,1.04762,  -9.2561,   1
10801,'AHANE   ',  11.0000,1,     0.000,     0.000,   7,   1,1.03695,  -8.6826,   2
11204,'ARKLOW  ',  38.0000,2,     0.000,     0.000,   6,   1,1.03752,  -7.4736,   2
11221,'ARKL    ',  10.5000,1,     0.000,     0.000,   6,   1,1.05454,  -5.5660,   1
11222,'ARKL    ',  10.5000,1,     0.000,     0.000,   6,   1,1.06656,  -5.5639,   1
11404,'ATHLONE ',  38.0000,1,     0.000,     0.000,   9,   1,1.04684, -11.9266,   2
11461,'ATHLONE_', 110.0000,1,     0.000,     0.000,   8,   1,1.05922,  -7.0466,   1
11671,'SEALROCK',  11.5000,2,     0.000,     0.000,   7,   1,1.02049,   4.6276,   1
11672,'SEALROCK',  11.5000,2,     0.000,     0.000,   7,   1,1.02049,   4.6276,   4
12001,'ARTANE  ',  10.0000,1,     0.000,     0.000,   1,   1,1.05787,  -8.9018,   2
12202,'ATHY    ',  20.0000,1,     0.000,     0.000,   8,   1,1.03587, -12.3632,   1
12804,'BALLYLIC',  38.0000,2,     0.000,     0.000,   3,   1,1.04572, -12.0407,   1
13001,'BALLYBEG',  10.0000,1,     0.000,     0.000,   6,   1,1.03648,  -8.8132,   2
13204,'BLAKE   ',  38.0000,1,     0.000,     0.000,   8,   1,1.03404, -10.7081,   2
13219,'BLAKE T ', 110.0000,1,     0.000,     0.000,   8,   1,1.04322,  -6.7673,   1
13404,'BINBANE ',  38.0000,2,     0.000,     0.000,   9,   1,1.04611, -18.0057,   2
13601,'BALLYDIN',  10.0000,1,     0.000,     0.000,   5,   1,1.04814, -14.4791,   2
13604,'BALLYDIN',  38.0000,1,     0.000,     0.000,   5,   1,1.03645, -13.5320,   2
13802,'BARNAHEL',  20.0000,1,     0.000,     0.000,   3,   1,1.04279, -14.5958,   2
13804,'BARNAHEL',  38.0000,1,     0.000,     0.000,   3,   1,1.04227, -12.8132,   2
14002,'BELLACOR',  20.0000,2,     0.000,     0.000,   9,   1,1.05489, -13.3214,   2
14061,'BELL_CAP', 110.0000,1,     0.000,     0.000,   9,   1,1.04495, -11.3811,   1
14204,'BLACKROC',  38.0000,1,     0.000,     0.000,   2,   1,1.03287, -10.2980,   2
14401,'BANDON  ',  10.0000,1,     0.000,     0.000,   3,   1,1.04204, -13.9847,   1
14404,'BANDON  ',  38.0000,2,     0.000,     0.000,   3,   1,1.05683, -15.6743,   2
14461,'BAN_CAP ', 110.0000,1,     0.000,     0.000,   3,   1,1.04032, -11.3757,   1
14604,'BARRYMOR',  38.0000,2,     0.000,     0.000,   5,   1,1.04004, -15.0821,   2
14804,'BUTLERST',  38.0000,1,     0.000,     0.000,   5,   1,1.05625, -16.1028,   2
15001,'BRINNY  ',  10.0000,1,     0.000,     0.000,   3,   1,1.03301, -12.5498,   5
15401,'BANOGE  ',  10.0000,1,     0.000,     0.000,   6,   1,1.04242,  -8.8512,   2
15801,'CABRA   ',  10.0000,1,     0.000,     0.000,   1,   1,1.04752,  -9.9819,   2
16021,'CLASH   ',  10.5000,1,     0.000,     0.000,   3,   1,1.07802,  -5.3278,   1
16202,'COOLROE ',  20.0000,1,     0.000,     0.000,   3,   1,1.04010, -11.6712,   2
16302,'CORDERRY',  20.0000,2,     0.000,     0.000,   9,   1,1.04583,  -8.3073,   1
16421,'CASH    ',  10.5000,1,     0.000,     0.000,   9,   1,1.04530,  -0.4453,   1
16422,'CASH2   ',  10.5000,1,     0.000,     0.000,   9,   1,1.04530,  -0.4526,   1
16423,'CASH3   ',  10.5000,1,     0.000,     0.000,   9,   1,1.05978,  -0.4316,   1
16461,'CASH_CAP', 110.0000,1,     0.000,     0.000,   9,   1,1.05963,  -3.4111,   1
16604,'CASTLEBA',  38.0000,2,     0.000,     0.000,   9,   1,1.03736, -14.8637,   2
16661,'CBAR_CAP', 110.0000,1,     0.000,     0.000,   9,   1,1.05699, -10.2703,   1
16662,'CBAR_SVC', 110.0000,1,     0.000,     0.000,   9,   1,1.05897, -10.2703,   1
16873,'CDRDG3  ',  10.5000,2,     0.000,     0.000,   3,   1,0.99990,  -9.6561,   3
17004,'CATH_FAL',  38.0000,2,     0.000,     0.000,   9,   1,1.03781, -14.1906,   2
17061,'CATH_CAP', 110.0000,1,     0.000,     0.000,   9,   1,1.03516, -11.9139,   1
17073,'CATHG3  ',  10.5000,2,     0.000,     0.000,   9,   1,1.00952, -10.4664,   3
17074,'CATHG4  ',  10.5000,2,     0.000,     0.000,   9,   1,0.98618, -11.9139,   3
17204,'CAHIR   ',  38.0000,1,     0.000,     0.000,   5,   1,1.02864, -15.1751,   2
17261,'CAHR_CAP', 110.0000,1,     0.000,     0.000,   5,   1,1.04649, -13.1936,   1
17404,'CARRICKM',  38.0000,1,     0.000,     0.000,   2,   1,1.04575, -11.9902,   2
17421,'CMIN1   ',  10.5000,1,     0.000,     0.000,   2,   1,1.06799,  -3.3739,   2
17422,'CMIN2   ',  10.5000,1,     0.000,     0.000,   2,   1,1.06799,  -3.3739,   2
17431,'CKMN_PST', 220.0000,1,     0.000,     0.000,   2,   1,1.07459,  -3.5444,   1
17462,'CKM_SR  ', 220.0000,1,     0.000,     0.000,   2,   1,1.07252,  -2.6207,   1
17671,'CLIFG1  ',  10.5000,2,     0.000,     0.000,   9,   1,1.01311, -10.0229,   3
17672,'CLIFG2  ',  10.5000,2,     0.000,     0.000,   9,   1,0.98751, -11.8847,   3
17802,'CASTLEFA',  20.0000,1,     0.000,     0.000,   7,   1,1.03438,  -6.2912,   1
18004,'COOKSTOW',  38.0000,1,     0.000,     0.000,   1,   1,1.05430, -14.0950,   2
18019,'COOKST T', 110.0000,1,     0.000,     0.000,   1,   2,1.05061,  -7.7387,   2
18204,'CLOON   ',  38.0000,1,     0.000,     0.000,   9,   1,1.03229, -10.6151,   2
18402,'CRANE   ',  20.0000,1,     0.000,     0.000,   6,   1,1.04473, -11.4374,   2
18404,'CRANE   ',  38.0000,2,     0.000,     0.000,   6,   1,1.04874, -13.3576,   2
18604,'CARRICK ',  38.0000,1,     0.000,     0.000,   9,   1,1.05583, -12.6537,   2
18701,'COLLEGE ',  10.0000,1,     0.000,     0.000,   2,   1,1.07860,  -5.9273,   1
18804,'CHARLEVI',  38.0000,1,     0.000,     0.000,   3,   1,1.04498, -13.3124,   2
19004,'CARLOW  ',  38.0000,2,     0.000,     0.000,   8,   1,1.05108, -13.5463,   2
19204,'COW_CROS',  38.0000,1,     0.000,     0.000,   3,   1,1.04071, -13.8397,   2
19302,'CUNGHILL',  20.0000,1,     0.000,     0.000,   9,   1,1.01500,  -8.9977,   4
19402,'CUNGHILL',  20.0000,2,     0.000,     0.000,   9,   1,1.00354,  -6.6580,   1
19471,'EDENDERR',  11.0000,2,     0.000,     0.000,   8,   1,1.01571,   3.4215,   4
19601,'CASTLEVI',  10.0000,1,     0.000,     0.000,   3,   1,1.04368, -12.2863,   2
20021,'CULLENAG',  10.5000,1,     0.000,     0.000,   5,   1,1.06160,  -9.2132,   1
20201,'CITY WES',  10.0000,1,     0.000,     0.000,   1,   1,1.05903,  -9.0773,   2
20421,'CORDUFF ',  10.5000,1,     0.000,     0.000,   2,   1,1.06973,  -3.7078,   1
20422,'CORDUFF ',  10.5000,1,     0.000,     0.000,   2,   1,1.06973,  -3.7078,   1
21004,'DUNDALK ',  38.0000,1,     0.000,     0.000,  10,   1,1.03118, -15.0822,   2
21204,'DRUMLINE',  38.0000,1,     0.000,     0.000,   7,   1,1.03970, -13.2616,   2
21404,'DUNGARVA',  38.0000,1,     0.000,     0.000,   5,   1,1.04982, -14.3962,   2
21604,'DOON    ',  38.0000,1,     0.000,     0.000,   5,   1,1.03584, -20.5266,   2
21661,'DOON_CAP', 110.0000,1,     0.000,     0.000,   5,   1,1.03968, -13.5649,   1
21804,'DRYBRIDG',  38.0000,1,     0.000,     0.000,  10,   1,1.04064, -14.8034,   2
22021,'DUNS    ',  17.5000,1,     0.000,     0.000,   2,   1,1.08112,   0.9880,   1
22204,'DUNMANWA',  38.0000,2,     0.000,     0.000,   3,   1,1.04842, -14.5981,   2
22261,'DUNM_CAP', 110.0000,1,     0.000,     0.000,   3,   1,1.03562, -11.3093,   1
22404,'DALLOW  ',  38.0000,1,     0.000,     0.000,   5,   1,1.04331,  -8.2278,   2
22419,'DALLOW T', 110.0000,1,     0.000,     0.000,   5,   1,1.05398,  -5.5231,   1
22804,'DALTON  ',  38.0000,1,     0.000,     0.000,   9,   1,1.03258, -12.2661,   2
22861,'DALT_CAP', 110.0000,1,     0.000,     0.000,   9,   1,1.05796,  -8.6511,   1
23001,'DUNFIRTH',  10.0000,1,     0.000,     0.000,   2,   1,1.04944,  -9.6718,   2
23019,'DUNFIR_T', 110.0000,1,     0.000,     0.000,   2,   1,1.04127,  -7.5734,   1
23604,'ENNIS   ',  38.0000,1,     0.000,     0.000,   7,   1,1.03563, -13.0783,   2
24804,'FASSAROE',  38.0000,1,     0.000,     0.000,   2,   1,1.04453, -10.5862,   2
25221,'FLAG1   ',  10.5000,1,     0.000,     0.000,   9,   1,1.07365,  -6.5105,   1
25222,'FLAG2   ',  10.5000,1,     0.000,     0.000,   9,   1,1.07351,  -6.5306,   1
25404,'FRANCIS ',  38.0000,1,     0.000,     0.000,   1,   1,1.05312, -13.3805,   2
25604,'FINGLAS ',  38.0000,1,     0.000,     0.000,   2,   1,1.03126, -15.1517,   1
25621,'FING1   ',  10.5000,1,     0.000,     0.000,   2,   1,1.08384,  -3.9456,   1
25622,'FING2   ',  10.5000,1,     0.000,     0.000,   2,   1,1.08384,  -3.9456,   1
25623,'FING3   ',  10.5000,1,     0.000,     0.000,   2,   1,1.08384,  -3.9456,   1
25624,'FING4   ',  10.5000,4,     0.000,     0.000,   2,   1,1.00000,   0.0000,   1
26802,'GILRA   ',  20.0000,1,     0.000,     0.000,   9,   1,1.05242, -11.1817,   5
27004,'GLASMORE',  38.0000,1,     0.000,     0.000,   2,   1,1.05363, -11.4496,   2
27204,'GRIFFINR',  38.0000,2,     0.000,     0.000,   2,   1,1.04185, -11.4557,   2
27219,'GRFRAT T', 110.0000,1,     0.000,     0.000,   2,   1,1.05632,  -6.4993,   2
27404,'GREAT IS',  38.0000,1,     0.000,     0.000,   6,   1,1.04525, -14.3728,   2
27421,'GISL    ',  10.5000,1,     0.000,     0.000,   6,   1,1.07248,  -8.8605,   1
27422,'GISL    ',  10.5000,1,     0.000,     0.000,   6,   1,1.07265,  -8.8515,   1