<!DOCTYPE HTML PUBLIC "-//W3C//DTD HTML 4.0 Transitional//EN">
<!-- saved from url=(0071)http://www.eirgrid.com/EirgridPortal/uploads/Publications/snv04_web.raw -->
<HTML><HEAD>
<META http-equiv=Content-Type content="text/html; charset=windows-1252">
<META content="MSHTML 6.00.2900.3492" name=GENERATOR></HEAD>
<BODY><PRE>0,   100.00          / PSS/E-29.4    THU, JUL 22 2004  14:31
ESB NATIONAL GRID FORECAST STATEMENT 2004-2010
BASECASE SUMMER NIGHT VALLEY 2004
   10,'F_M_____',  38.0000,1,     0.000,     0.000,   1,   1,1.03847,   5.5539,   2
   11,'FMN_LOOP',  38.0000,1,     0.000,     0.000,   1,   1,1.03297,   4.3306,   2
   12,'BEDFORD ',  38.0000,1,     0.000,     0.000,   1,   1,1.02833,   5.4750,   2
   13,'M_R_____',  38.0000,1,     0.000,     0.000,   1,   1,1.03026,   5.3727,   2
   14,'F_I_____',  38.0000,1,     0.000,     0.000,   1,   1,1.02759,   6.3207,   2
   15,'I_M_____',  38.0000,1,     0.000,     0.000,   1,   1,1.03290,   5.3867,   2
 1021,'ARDNACRU', 110.0000,1,     0.000,     0.000,   7,   1,1.01426,  -1.2335,   1
 1041,'AGHADA  ', 110.0000,1,     0.000,     0.000,   3,   1,1.00715,  -0.8257,   1
 1042,'AGHADA  ', 220.0000,1,     0.000,     0.000,   3,   1,1.00014,  -0.0736,   1
 1061,'ARIGNA  ', 110.0000,1,     0.000,     0.000,   9,   1,0.99809,   2.2308,   2
 1081,'AHANE   ', 110.0000,1,     0.000,     0.000,   7,   1,1.02510,  -1.0508,   2
 1101,'ANNER   ', 110.0000,1,     0.000,     0.000,   5,   3,0.99148,  -0.5365,   5
 1121,'ARKLOW  ', 110.0000,1,     0.000,     0.000,   6,   1,1.01125,   6.5866,   1
 1122,'ARKLOW  ', 220.0000,1,     0.000,     0.000,   6,   1,1.02421,   7.0804,   1
 1141,'ATHLONE ', 110.0000,1,     0.000,     0.000,   8,   1,1.00037,   2.1279,   1
 1161,'AUGHINIS', 110.0000,1,     0.000,     0.000,   7,   3,1.00401,  -1.4571,   1
 1181,'ARVA    ', 110.0000,1,     0.000,     0.000,  10,   1,0.98870,   2.5659,   1
 1201,'ARTANE  ', 110.0000,1,     0.000,     0.000,   1,   1,1.01615,   6.6130,   2
 1281,'BALLYLIC', 110.0000,1,     0.000,     0.000,   3,   1,1.00598,  -1.5050,   2
 1301,'BALLYBEG', 110.0000,1,     0.000,     0.000,   6,   1,1.00846,   7.1568,   1
 1321,'BLAKE   ', 110.0000,1,     0.000,     0.000,   8,   1,1.00367,   8.9001,   2
 1341,'BINBANE ', 110.0000,1,     0.000,     0.000,   9,   1,0.97739,   0.5530,   2
 1361,'BALLYDIN', 110.0000,1,     0.000,     0.000,   5,   1,0.99454,   0.1210,   1
 1381,'BARNAHEL', 110.0000,1,     0.000,     0.000,   3,   1,1.00835,  -1.3553,   1
 1401,'BELLACOR', 110.0000,1,     0.000,     0.000,   9,   1,1.00000,   2.5769,   1
 1421,'BLACKROC', 110.0000,1,     0.000,     0.000,   2,   2,1.01242,   7.3663,   2
 1441,'BANDON  ', 110.0000,1,     0.000,     0.000,   3,   1,1.00249,  -1.7070,   1
 1461,'BARRYMOR', 110.0000,1,     0.000,     0.000,   5,   1,1.00317,  -1.1060,   2
 1481,'BUTLERST', 110.0000,1,     0.000,     0.000,   5,   1,1.00175,   1.7498,   1
 1501,'BRINNY  ', 110.0000,1,     0.000,     0.000,   3,   1,1.00234,  -1.7162,   5
 1511,'BRINNY  ', 110.0000,1,     0.000,     0.000,   3,   1,1.00235,  -1.7158,   5
 1581,'CABRA   ', 110.0000,1,     0.000,     0.000,   1,   2,1.01592,   6.6086,   2
 1601,'CLASHAVO', 110.0000,1,     0.000,     0.000,   3,   1,1.02276,  -1.0008,   1
 1602,'CLASHAVO', 220.0000,1,     0.000,     0.000,   3,   1,1.00309,   0.4361,   1
 1621,'COOLROE ', 110.0000,1,     0.000,     0.000,   3,   1,1.00750,  -1.4859,   1
 1641,'CASHLA  ', 110.0000,1,     0.000,     0.000,   9,   1,1.01962,   2.5762,   1
 1642,'CASHLA  ', 220.0000,1,     0.000,     0.000,   9,   1,1.00928,   4.6239,   1
 1661,'CASTLEBA', 110.0000,1,     0.000,     0.000,   9,   1,1.00191,   1.9492,   1
 1681,'CARRIGAD', 110.0000,1,     0.000,     0.000,   3,   1,1.00780,  -1.4934,   1
 1701,'CATH_FAL', 110.0000,1,     0.000,     0.000,   9,   1,0.98339,   0.9284,   1
 1721,'CAHIR   ', 110.0000,1,     0.000,     0.000,   5,   1,0.99648,  -0.8197,   1
 1741,'CARRICKM', 110.0000,1,     0.000,     0.000,   2,   2,1.00676,   8.1811,   2
 1742,'CARRICKM', 220.0000,1,     0.000,     0.000,   2,   2,1.03100,   9.3520,   1
 1761,'CLIFF   ', 110.0000,1,     0.000,     0.000,   9,   1,0.98341,   0.9281,   1
 1781,'CASTLEFA', 110.0000,1,     0.000,     0.000,   7,   3,1.00359,  -1.4779,   5
 1791,'CASTLEFA', 110.0000,1,     0.000,     0.000,   7,   3,1.00359,  -1.4779,   5
 1801,'COOKSTOW', 110.0000,1,     0.000,     0.000,   1,   2,0.99758,   7.6399,   2
 1821,'CLOON   ', 110.0000,1,     0.000,     0.000,   9,   1,1.01200,   2.3204,   2
 1841,'CRANE   ', 110.0000,1,     0.000,     0.000,   6,   1,0.99886,   4.3685,   1
 1861,'CARRICK ', 110.0000,1,     0.000,     0.000,   9,   1,1.00372,   2.5053,   1
 1871,'COLLEGE ', 110.0000,1,     0.000,     0.000,   2,   1,1.01502,   6.4543,   1
 1881,'CHARLEVI', 110.0000,1,     0.000,     0.000,   3,   1,1.01394,  -1.6121,   1
 1901,'CARLOW  ', 110.0000,1,     0.000,     0.000,   8,   1,1.01792,   4.8124,   1
 1921,'COW CROS', 110.0000,1,     0.000,     0.000,   3,   1,1.00779,  -1.2256,   1
 1931,'CUNGHILL', 110.0000,1,     0.000,     0.000,   9,   1,0.99559,   2.0079,   4
 1941,'CUSHALIN', 110.0000,1,     0.000,     0.000,   8,   1,1.00000,  11.3679,   1
 1961,'CASTLEVI', 110.0000,1,     0.000,     0.000,   3,   1,1.00815,  -1.0936,   1
 1981,'CORRACLA', 110.0000,1,     0.000,     0.000,   9,   1,0.98021,   1.3649,   1
 2001,'CULLENAG', 110.0000,1,     0.000,     0.000,   5,   1,1.00382,   1.5613,   1
 2002,'CULLENAG', 220.0000,1,     0.000,     0.000,   5,   1,1.00874,   2.6882,   1
 2021,'CITY WES', 110.0000,1,     0.000,     0.000,   1,   1,1.01550,   7.3018,   2
 2081,'DUNKETTL', 110.0000,1,     0.000,     0.000,   3,   1,1.00815,  -1.0937,   5
 2101,'DUNDALK ', 110.0000,1,     0.000,     0.000,  10,   1,1.00650,   4.6201,   1
 2121,'DRUMLINE', 110.0000,1,     0.000,     0.000,   7,   1,1.00432,  -1.1962,   1
 2141,'DUNGARVA', 110.0000,1,     0.000,     0.000,   5,   1,1.00187,   0.2243,   1
 2161,'DOON    ', 110.0000,1,     0.000,     0.000,   5,   1,0.99209,  -0.4992,   1
 2181,'DRYBRIDG', 110.0000,1,     0.000,     0.000,  10,   1,0.99020,   4.3226,   1
 2202,'DUNSTOWN', 220.0000,1,     0.000,     0.000,   2,   1,1.02784,   7.6715,   1
 2204,'DUNSTOWN', 380.0000,1,     0.000,     0.000,   2,   1,1.04227,   9.5367,   1
 2221,'DUNMANWA', 110.0000,1,     0.000,     0.000,   3,   1,1.00603,  -1.5082,   1
 2241,'DALLOW  ', 110.0000,1,     0.000,     0.000,   5,   1,1.00636,   3.1524,   2
 2281,'DALTON  ', 110.0000,1,     0.000,     0.000,   9,   1,1.00500,   1.8981,   1
 2301,'DUNFIRTH', 110.0000,1,     0.000,     0.000,   2,   1,1.00699,   5.8045,   2
 2361,'ENNIS   ', 110.0000,1,     0.000,     0.000,   7,   1,1.00664,  -0.4578,   1
 2481,'FASS EAS', 110.0000,1,     0.000,     0.000,   2,   2,1.00524,   8.0785,   2
 2491,'FASS WES', 110.0000,1,     0.000,     0.000,   2,   2,1.00518,   8.0789,   2
 2521,'FLAGFORD', 110.0000,1,     0.000,     0.000,   9,   1,1.00523,   2.5495,   1
 2522,'FLAGFORD', 220.0000,1,     0.000,     0.000,   9,   1,1.00721,   4.2669,   1
 2541,'FRN ST A', 110.0000,1,     0.000,     0.000,   1,   2,1.01209,   7.3267,   2
 2551,'FRN ST B', 110.0000,1,     0.000,     0.000,   1,   2,1.01595,   7.3291,   2
 2561,'FIN_URBA', 110.0000,1,     0.000,     0.000,   2,   2,1.01615,   6.6858,   1
 2562,'FINGLAS ', 220.0000,1,     0.000,     0.000,   2,   2,1.03744,   9.1247,   1
 2571,'FIN_RURA', 110.0000,1,     0.000,     0.000,   2,   2,1.01321,   6.6933,   1
 2681,'GILRA   ', 110.0000,1,     0.000,     0.000,   9,   3,1.00169,   2.3405,   2
 2701,'GLASMORE', 110.0000,1,     0.000,     0.000,   2,   2,1.00892,   6.2877,   2
 2711,'GLASMORE', 110.0000,1,     0.000,     0.000,   2,   2,1.01332,   6.6903,   2
 2721,'GRIFFINR', 110.0000,1,     0.000,     0.000,   2,   2,1.01169,   6.3712,   2
 2731,'GRIFFINR', 110.0000,1,     0.000,     0.000,   2,   1,1.01160,   6.3817,   2
 2741,'GREAT IS', 110.0000,1,     0.000,     0.000,   6,   1,1.00459,   2.6033,   1
 2742,'GREAT IS', 220.0000,1,     0.000,     0.000,   6,   1,1.01290,   3.8099,   1
 2761,'GRANGE  ', 110.0000,1,     0.000,     0.000,   1,   2,1.01341,   6.6059,   2
 2781,'GALWAY  ', 110.0000,1,     0.000,     0.000,   9,   1,1.01482,   2.2514,   1
 2801,'GOLAGH  ', 110.0000,1,     0.000,     0.000,   9,   1,0.98001,   0.7832,   1
 2821,'GORTAWEE', 110.0000,1,     0.000,     0.000,   9,   1,0.97951,   1.4556,   1
 2861,'GRANGE C', 110.0000,1,     0.000,     0.000,   1,   1,1.01198,   7.0124,   2
 2881,'GLENLARA', 110.0000,1,     0.000,     0.000,   3,   1,1.01153,  -1.7922,   2
 2921,'HAULBOWL', 110.0000,1,     0.000,     0.000,   3,   3,1.00891,  -1.3172,   5
 2931,'HAULBOWL', 110.0000,1,     0.000,     0.000,   3,   3,1.00836,  -1.3555,   5
 2941,'HAROLDS ', 110.0000,1,     0.000,     0.000,   1,   2,1.01234,   7.3509,   2
 2962,'HUNTSTOW', 220.0000,1,     0.000,     0.000,   2,   1,1.03730,   9.2230,   1
 3061,'INISCARR', 110.0000,1,     0.000,     0.000,   3,   1,1.00765,  -1.4897,   1
 3081,'INCHICOR', 110.0000,1,     0.000,     0.000,   1,   2,1.01630,   7.3617,   2
 3082,'INCHICOR', 220.0000,1,     0.000,     0.000,   2,   2,1.03826,   8.8215,   1
 3101,'IKERRIN ', 110.0000,1,     0.000,     0.000,   5,   1,0.99158,   0.0945,   2
 3122,'IRISHTOW', 220.0000,1,     0.000,     0.000,   2,   1,1.03518,   9.6972,   1
 3201,'KNOCKRAH', 110.0000,1,     0.000,     0.000,   3,   1,1.00925,  -0.9501,   1
 3202,'KNOCKRAH', 220.0000,1,     0.000,     0.000,   3,   1,0.99930,   0.0017,   1
 3221,'KILBARRY', 110.0000,1,     0.000,     0.000,   3,   1,1.00780,  -1.4344,   1
 3241,'KILTEEL ', 110.0000,1,     0.000,     0.000,   8,   1,1.00245,   5.8311,   2
 3261,'KILKENNY', 110.0000,1,     0.000,     0.000,   8,   1,1.00834,   3.4729,   1
 3281,'KILLONAN', 110.0000,1,     0.000,     0.000,   7,   1,1.02508,  -1.0503,   1
 3282,'KILLONAN', 220.0000,1,     0.000,     0.000,   7,   1,0.99356,   1.1388,   1
 3301,'KNOCKERA', 110.0000,1,     0.000,     0.000,   7,   1,1.01492,  -1.1359,   1
 3321,'KNOCKUMB', 110.0000,1,     0.000,     0.000,  10,   3,0.97525,   3.2165,   5
 3341,'KELLIS  ', 110.0000,1,     0.000,     0.000,   8,   1,1.01961,   4.7876,   1
 3342,'KELLIS  ', 220.0000,1,     0.000,     0.000,   8,   1,1.01697,   5.5706,   1
 3361,'KILTOY  ', 110.0000,1,     0.000,     0.000,   9,   3,0.97251,  -0.1163,   5
 3371,'KILTOY  ', 110.0000,1,     0.000,     0.000,   9,   3,0.97241,  -0.1221,   5
 3381,'KINNEGAD', 110.0000,1,     0.000,     0.000,   2,   1,1.00536,   5.5424,   1
 3401,'KILLOTER', 110.0000,1,     0.000,     0.000,   5,   1,1.00214,   1.8538,   1
 3421,'KILMORE ', 110.0000,1,     0.000,     0.000,   1,   1,1.01312,   6.6176,   2
 3501,'LANESBOR', 110.0000,1,     0.000,     0.000,   9,   1,1.00309,   2.4175,   1
 3521,'LOUTH   ', 110.0000,1,     0.000,     0.000,  10,   1,1.01179,   4.9648,   1
 3522,'LOUTH   ', 220.0000,2,     0.000,     0.000,  10,   1,1.02366,   6.2535,   1
 3541,'LIMERICK', 110.0000,1,     0.000,     0.000,   7,   1,1.01739,  -1.2328,   1
 3561,'LISDRUM ', 110.0000,1,     0.000,     0.000,  10,   1,0.99744,   3.6904,   1
 3581,'LETTERKE', 110.0000,1,     0.000,     0.000,   9,   1,0.97369,  -0.0385,   1
 3601,'LIBERTY ', 110.0000,1,     0.000,     0.000,   3,   1,1.00777,  -1.4883,   2
 3621,'LISHEEN ', 110.0000,1,     0.000,     0.000,   5,   1,0.98433,  -1.0225,   1
 3761,'MACETOWN', 110.0000,1,     0.000,     0.000,   2,   2,1.00771,   6.2426,   1
 3781,'MCDERMOT', 110.0000,1,     0.000,     0.000,   1,   2,1.01594,   6.5943,   2
 3801,'MIDLETON', 110.0000,1,     0.000,     0.000,   3,   1,1.00721,  -1.0304,   1
 3821,'MEATH HI', 110.0000,1,     0.000,     0.000,  10,   1,1.00774,   4.7160,   2
 3841,'MAYNOOTH', 110.0000,1,     0.000,     0.000,   2,   2,1.01196,   6.4199,   1
 3842,'MAYNOOTH', 220.0000,1,     0.000,     0.000,   2,   2,1.03042,   7.8199,   1
 3861,'MILLTOWN', 110.0000,1,     0.000,     0.000,   1,   2,1.01260,   7.4108,   2
 3871,'MILLTOWN', 110.0000,1,     0.000,     0.000,   1,   2,1.01891,   6.8218,   2
 3881,'MACROOM ', 110.0000,1,     0.000,     0.000,   3,   1,1.01602,  -1.2433,   1
 3901,'MONETEEN', 110.0000,1,     0.000,     0.000,   7,   1,1.01306,  -1.4065,   1
 3941,'MONEYPOI', 110.0000,1,     0.000,     0.000,   7,   1,1.00868,  -0.3128,   1
 3942,'MONEYPOI', 220.0000,1,     0.000,     0.000,   7,   1,1.02602,   3.6698,   1
 3944,'MNYPG1G3', 380.0000,1,     0.000,     6.000,   2,   1,1.05879,  12.1066,   1
 3954,'MNYPG2  ', 380.0000,1,     0.000,     6.000,   7,   1,1.05000,   6.1467,   1
 3961,'MARINA  ', 110.0000,1,     0.000,     0.000,   3,   1,1.00786,  -1.4781,   1
 3981,'MUNGRET ', 110.0000,1,     0.000,     0.000,   7,   3,1.01291,  -1.4153,   5
 3991,'MUNGRET ', 110.0000,1,     0.000,     0.000,   7,   3,1.01292,  -1.4149,   5
 4001,'MULLINGA', 110.0000,1,     0.000,     0.000,   9,   1,1.00478,   3.6221,   1
 4021,'MALLOW  ', 110.0000,1,     0.000,     0.000,   3,   1,1.01084,  -1.6472,   1
 4041,'MOY     ', 110.0000,1,     0.000,     0.000,   9,   1,0.99571,   2.0783,   1
 4061,'MULLAGHA', 110.0000,1,     0.000,     0.000,  10,   1,1.00744,   4.6832,   2
 4081,'MONREAD ', 110.0000,1,     0.000,     0.000,   8,   1,1.00077,   5.7198,   1
 4201,'NEWBRIDG', 110.0000,1,     0.000,     0.000,   8,   1,0.99924,   5.6463,   1
 4221,'NAVAN   ', 110.0000,1,     0.000,     0.000,  10,   1,0.97899,   3.4517,   1
 4242,'NORTH WA', 220.0000,1,     0.000,     0.000,   2,   2,1.03986,   8.8536,   1
 4281,'NANGOR  ', 110.0000,1,     0.000,     0.000,   1,   1,1.01172,   6.9942,   1
 4341,'OLDCOURT', 110.0000,1,     0.000,     0.000,   3,   3,1.00779,  -1.2257,   5
 4351,'OLDCOURT', 110.0000,1,     0.000,     0.000,   3,   3,1.00779,  -1.2257,   5
 4361,'OUGHTRAG', 110.0000,1,     0.000,     0.000,   7,   1,1.01624,  -0.7511,   2
 4382,'OLDSTREE', 220.0000,1,     0.000,     0.000,   9,   1,1.01242,   7.6683,   1
 4384,'OLDSTREE', 380.0000,1,     0.000,     0.000,   9,   1,1.06042,   9.9604,   1
 4441,'POLLAPHU', 110.0000,1,     0.000,     0.000,   8,   1,1.01612,   4.6457,   1
 4451,'POOLBEG ', 110.0000,1,     0.000,     0.000,   1,   1,1.01283,   7.4445,   2
 4461,'POOLBEG ', 110.0000,1,     0.000,     0.000,   1,   1,1.01266,   7.4885,   2
 4462,'POOLBEG ', 220.0000,1,     0.000,     0.000,   2,   2,1.04000,   8.7600,   1
 4471,'POOLBEG ', 110.0000,1,     0.000,     0.000,   1,   1,1.01267,   7.4868,   2
 4481,'PORTLAOI', 110.0000,1,     0.000,     0.000,   8,   1,1.00261,   6.1732,   1
 4501,'PLATIN  ', 110.0000,1,     0.000,     0.000,  10,   3,0.98850,   4.2782,   1
 4522,'PROSPECT', 220.0000,1,     0.000,     0.000,   7,   1,1.02269,   3.0320,   1
 4621,'RYEBROOK', 110.0000,1,     0.000,     0.000,   2,   3,1.00047,   5.6411,   1
 4651,'RINGSEND', 110.0000,1,     0.000,     0.000,   1,   2,1.01282,   7.4448,   2
 4681,'RATHKEAL', 110.0000,1,     0.000,     0.000,   7,   1,1.01910,  -0.4252,   1
 4701,'RICHMOND', 110.0000,1,     0.000,     0.000,   9,   1,1.00099,   2.2722,   2
 4721,'RAFFEEN ', 110.0000,1,     0.000,     0.000,   3,   1,1.00889,  -1.3168,   1
 4722,'RAFFEEN ', 220.0000,1,     0.000,     0.000,   3,   1,0.99501,  -0.5283,   1
 4741,'RINAWADE', 110.0000,1,     0.000,     0.000,   2,   3,1.00871,   6.1373,   1
 4761,'RINGASKI', 110.0000,1,     0.000,     0.000,   3,   1,1.00883,  -1.3205,   2
 4901,'SHELTON ', 110.0000,1,     0.000,     0.000,   6,   3,1.01125,   6.5865,   5
 4911,'SHELTON ', 110.0000,1,     0.000,     0.000,   6,   3,1.01125,   6.5865,   5
 4941,'SHANNONB', 110.0000,1,     0.000,     0.000,   5,   1,1.00698,   2.5621,   1
 4942,'SHANNONB', 220.0000,1,     0.000,     0.000,   5,   1,1.01004,   3.5461,   1
 4961,'SHANKILL', 110.0000,1,     0.000,     0.000,  10,   1,0.98994,   3.0422,   1
 4981,'SLIGO   ', 110.0000,1,     0.000,     0.000,   9,   1,0.99250,   1.6624,   1
 5001,'SOMERSET', 110.0000,1,     0.000,     0.000,   9,   1,1.00805,   2.5262,   2
 5022,'SHELLYBA', 220.0000,1,     0.000,     0.000,   2,   2,1.03542,   9.7452,   1
 5061,'STRATFOR', 110.0000,1,     0.000,     0.000,   8,   1,1.01552,   4.6366,   2
 5141,'TARBERT ', 110.0000,1,     0.000,     0.000,   7,   1,1.02326,   0.9368,   1
 5142,'TARBERT ', 220.0000,1,     0.000,     0.000,   7,   1,1.01956,   2.3361,   1
 5181,'TRABEG  ', 110.0000,1,     0.000,     0.000,   3,   1,1.00789,  -1.4790,   1
 5202,'TURLOUGH', 220.0000,1,     0.000,     0.000,   2,   1,1.02000,   5.9882,   1
 5221,'TULLABRA', 110.0000,1,     0.000,     0.000,   7,   1,1.00869,  -0.3000,   2
 5241,'TAWN_A  ', 110.0000,1,     0.000,     0.000,   9,   3,0.99575,   2.0773,   2
 5251,'TAWN_B  ', 110.0000,1,     0.000,     0.000,   9,   3,0.99575,   2.0773,   2
 5261,'TRIEN   ', 110.0000,1,     0.000,     0.000,   7,   1,1.03177,   0.0626,   1
 5281,'TRALEE  ', 110.0000,1,     0.000,     0.000,   7,   1,1.02225,  -0.1352,   1
 5301,'THURLES ', 110.0000,1,     0.000,     0.000,   5,   1,0.98712,  -0.8411,   1
 5321,'THORNSBE', 110.0000,1,     0.000,     0.000,   2,   1,1.00263,   5.3350,   2
 5341,'TONROE  ', 110.0000,1,     0.000,     0.000,   9,   1,1.00264,   2.4967,   2
 5361,'TRILLICK', 110.0000,1,     0.000,     0.000,   9,   1,0.97008,  -0.0437,   2
 5381,'TIPPERAR', 110.0000,1,     0.000,     0.000,   5,   1,1.00639,  -1.0607,   1
 5441,'WATERFOR', 110.0000,1,     0.000,     0.000,   5,   1,1.00277,   2.0004,   1
 5462,'WOODLAND', 220.0000,1,     0.000,     0.000,   2,   1,1.03445,   8.5798,   1
 5464,'WOODLAND', 380.0000,1,     0.000,     0.000,   2,   1,1.04800,   9.3561,   1
 5481,'WHITEGAT', 110.0000,1,     0.000,     0.000,   3,   3,1.00725,  -0.9058,   1
 5501,'WEXFORD ', 110.0000,1,     0.000,     0.000,   6,   1,0.99714,   3.5302,   1
 5521,'WOLFE TO', 110.0000,1,     0.000,     0.000,   1,   1,1.01587,   6.5892,   2
10204,'ARDNACRU',  38.0000,2,     0.000,     0.000,   7,   1,1.05645,  -2.6073,   2
10205,'ARDNACRU',  38.0000,1,     0.000,     0.000,   7,   1,1.09029,  -4.4055,   2
10271,'ARDNG1  ',  10.5000,2,     0.000,     0.000,   7,   1,1.01426,  -1.2335,   3
10272,'ARDNG2  ',  10.5000,2,     0.000,     0.000,   7,   1,1.01426,  -1.2335,   3
10273,'ARDNG3  ',  10.5000,2,     0.000,     0.000,   7,   1,1.01426,  -1.2335,   3
10274,'ARDNG4  ',  10.5000,2,     0.000,     0.000,   7,   1,1.01426,  -1.2335,   3
10421,'AGHADA  ',  10.5000,1,     0.000,     0.000,   3,   1,1.00188,  -0.2626,   1
10471,'AGH_G1  ',  20.0000,2,     0.000,     0.000,   3,   1,0.99848,  -0.0736,   3
10472,'AGH_G11 ',  10.5000,2,     0.000,     0.000,   3,   1,0.99848,  -0.0736,   3
10473,'AGH_G12 ',  10.5000,2,     0.000,     0.000,   3,   1,0.99848,  -0.0736,   3
10474,'AGH_G14 ',  10.5000,2,     0.000,     0.000,   3,   1,0.99848,  -0.0736,   3
10476,'AGH_EMER',  10.5000,2,     0.000,     0.000,   3,   1,1.00715,  -0.8257,   3
10602,'ARIGNA  ',  20.0000,2,     0.000,     0.000,   9,   1,1.02466,   3.8090,   2
10619,'ARIGNA_T', 110.0000,1,     0.000,     0.000,   9,   1,0.99811,   2.2269,   1
10801,'AHANE   ',  11.0000,1,     0.000,     0.000,   7,   1,1.06317,  -1.0508,   2
11204,'ARKLOW  ',  38.0000,2,     0.000,     0.000,   6,   1,1.03458,   6.9456,   2
11221,'ARKL    ',  10.5000,1,     0.000,     0.000,   6,   1,1.00656,   6.9569,   1
11222,'ARKL    ',  10.5000,1,     0.000,     0.000,   6,   1,1.01817,   6.9578,   1
11404,'ATHLONE ',  38.0000,1,     0.000,     0.000,   9,   1,1.04651,   0.5461,   2
11461,'ATHLONE_', 110.0000,1,     0.000,     0.000,   8,   1,1.00037,   2.1279,   1
12001,'ARTANE  ',  10.0000,1,     0.000,     0.000,   1,   1,1.02844,   6.1629,   2
12804,'BALLYLIC',  38.0000,2,     0.000,     0.000,   3,   1,1.05501,  -1.4274,   1
13001,'BALLYBEG',  10.0000,1,     0.000,     0.000,   6,   1,1.03746,   6.5664,   2
13204,'BLAKE   ',  38.0000,1,     0.000,     0.000,   8,   1,1.02617,   7.8784,   2
13219,'BLAKE T ', 110.0000,1,     0.000,     0.000,   8,   1,1.00373,   8.9040,   1
13404,'BINBANE ',  38.0000,2,     0.000,     0.000,   9,   1,1.02401,  -0.8109,   2
13601,'BALLYDIN',  10.0000,1,     0.000,     0.000,   5,   1,1.05024,  -1.4594,   2
13604,'BALLYDIN',  38.0000,1,     0.000,     0.000,   5,   1,1.04386,  -0.0815,   2
13802,'BARNAHEL',  20.0000,1,     0.000,     0.000,   3,   1,1.04518,  -4.0629,   2
13804,'BARNAHEL',  38.0000,1,     0.000,     0.000,   3,   1,1.04606,  -2.2704,   2
14002,'BELLACOR',  20.0000,2,     0.000,     0.000,   9,   1,1.02843,   3.1607,   2
14061,'BELL_CAP', 110.0000,1,     0.000,     0.000,   9,   1,1.00000,   2.5769,   1
14071,'BELLG1  ',  10.5000,2,     0.000,     0.000,   9,   1,0.98849,   7.1672,   3
14072,'BELLG2  ',  10.5000,2,     0.000,     0.000,   9,   1,1.00000,   2.5769,   3
14204,'BLACKROC',  38.0000,1,     0.000,     0.000,   2,   1,1.02917,   5.3231,   2
14401,'BANDON  ',  10.0000,1,     0.000,     0.000,   3,   1,1.04906,  -2.4018,   1
14404,'BANDON  ',  38.0000,1,     0.000,     0.000,   3,   1,1.04801,  -2.9973,   2
14461,'BAN_CAP ', 110.0000,1,     0.000,     0.000,   3,   1,1.00249,  -1.7070,   1
14604,'BARRYMOR',  38.0000,2,     0.000,     0.000,   5,   1,1.04874,  -2.6610,   2
14619,'BARRYM T', 110.0000,1,     0.000,     0.000,   5,   1,1.00324,  -1.1027,   1
14804,'BUTLERST',  38.0000,1,     0.000,     0.000,   5,   1,1.04884,   0.0959,   2
15001,'BRINNY  ',  10.0000,1,     0.000,     0.000,   3,   1,1.04409,  -2.8573,   5
15801,'CABRA   ',  10.0000,1,     0.000,     0.000,   1,   1,1.02832,   6.0267,   2
16021,'CLASH   ',  10.5000,1,     0.000,     0.000,   3,   1,1.03657,   0.0768,   1
16202,'COOLROE ',  20.0000,1,     0.000,     0.000,   3,   1,1.05459,  -1.7665,   2
16421,'CASH    ',  10.5000,1,     0.000,     0.000,   9,   1,1.02603,   4.1117,   1
16422,'CASH2   ',  10.5000,1,     0.000,     0.000,   9,   1,1.02610,   4.1192,   1
16461,'CASH_CAP', 110.0000,1,     0.000,     0.000,   9,   1,1.01962,   2.5762,   1
16604,'CASTLEBA',  38.0000,2,     0.000,     0.000,   9,   1,1.05676,   0.7641,   2
16661,'CBAR_CAP', 110.0000,1,     0.000,     0.000,   9,   1,1.00191,   1.9492,   1
16662,'CBAR_SVC', 110.0000,1,     0.000,     0.000,   9,   1,1.00220,   1.9492,   1
16873,'CDRDG3  ',  10.5000,2,     0.000,     0.000,   3,   1,1.00780,  -1.4934,   3
17004,'CATH_FAL',  38.0000,2,     0.000,     0.000,   9,   1,1.03309,   0.3317,   2
17061,'CATH_CAP', 110.0000,1,     0.000,     0.000,   9,   1,0.98339,   0.9284,   1
17073,'CATHG3  ',  10.5000,2,     0.000,     0.000,   9,   1,0.98339,   0.9284,   3
17074,'CATHG4  ',  10.5000,2,     0.000,     0.000,   9,   1,0.98339,   0.9284,   3
17204,'CAHIR   ',  38.0000,1,     0.000,     0.000,   5,   1,1.05357,  -1.0243,   2
17261,'CAHR_CAP', 110.0000,1,     0.000,     0.000,   5,   1,0.99648,  -0.8197,   1
17404,'CARRICKM',  38.0000,1,     0.000,     0.000,   2,   1,1.03289,   7.1907,   2
17421,'CMIN1   ',  10.5000,1,     0.000,     0.000,   2,   1,1.01091,   9.0593,   2
17422,'CMIN2   ',  10.5000,1,     0.000,     0.000,   2,   1,1.01091,   9.0593,   2
17431,'CKMN_PST', 220.0000,1,     0.000,     0.000,   2,   1,1.03925,   8.5084,   1
17462,'CKM_SR  ', 220.0000,1,     0.000,     0.000,   2,   1,1.03100,   9.3520,   1
17671,'CLIFG1  ',  10.5000,2,     0.000,     0.000,   9,   1,0.98341,   0.9281,   3
17672,'CLIFG2  ',  10.5000,2,     0.000,     0.000,   9,   1,0.98341,   0.9281,   3
17802,'CASTLEFA',  20.0000,1,     0.000,     0.000,   7,   1,1.06125,  -6.8838,   1
18004,'COOKSTOW',  38.0000,1,     0.000,     0.000,   1,   1,1.02891,   5.6862,   2
18204,'CLOON   ',  38.0000,1,     0.000,     0.000,   9,   1,1.05018,   1.7144,   2
18402,'CRANE   ',  20.0000,1,     0.000,     0.000,   6,   1,1.02726,   4.0351,   2
18404,'CRANE   ',  38.0000,1,     0.000,     0.000,   6,   1,1.03167,   2.8689,   2
18604,'CARRICK ',  38.0000,1,     0.000,     0.000,   9,   1,1.04012,   1.5274,   2
18701,'COLLEGE ',  10.0000,1,     0.000,     0.000,   2,   1,1.03098,   6.4543,   1
18804,'CHARLEVI',  38.0000,1,     0.000,     0.000,   3,   1,1.05471,  -2.5802,   2
19004,'CARLOW  ',  38.0000,1,     0.000,     0.000,   8,   1,1.04469,   4.0847,   2
19204,'COW_CROS',  38.0000,1,     0.000,     0.000,   3,   1,1.04945,  -2.6996,   2
19302,'CUNGHILL',  20.0000,1,     0.000,     0.000,   9,   1,0.99523,   3.7979,   4
19402,'CUNGHILL',  20.0000,2,     0.000,     0.000,   9,   1,1.00000,   5.4553,   1
19471,'EDENDERR',  11.0000,2,     0.000,     0.000,   8,   1,0.98712,  16.9810,   4
19601,'CASTLEVI',  10.0000,1,     0.000,     0.000,   3,   1,1.03918,  -2.1233,   2
20021,'CULLENAG',  10.5000,1,     0.000,     0.000,   5,   1,1.00748,   2.4075,   1
20201,'CITY WES',  10.0000,1,     0.000,     0.000,   1,   1,1.02821,   6.7575,   2
21004,'DUNDALK ',  38.0000,1,     0.000,     0.000,  10,   1,1.04201,   3.0396,   2
21204,'DRUMLINE',  38.0000,1,     0.000,     0.000,   7,   1,1.05877,  -4.0738,   2
21404,'DUNGARVA',  38.0000,1,     0.000,     0.000,   5,   1,1.05368,  -0.8734,   2
21604,'DOON    ',  38.0000,1,     0.000,     0.000,   5,   1,1.04353,  -2.3202,   2
21661,'DOON_CAP', 110.0000,1,     0.000,     0.000,   5,   1,0.99209,  -0.4992,   1
21804,'DRYBRIDG',  38.0000,1,     0.000,     0.000,  10,   1,1.03089,   2.6532,   2
22021,'DUNS    ',  17.5000,1,     0.000,     0.000,   2,   1,1.02838,   9.0707,   1
22204,'DUNMANWA',  38.0000,2,     0.000,     0.000,   3,   1,1.06349,  -1.9227,   2
22261,'DUNM_CAP', 110.0000,1,     0.000,     0.000,   3,   1,1.00603,  -1.5082,   1
22404,'DALLOW  ',  38.0000,1,     0.000,     0.000,   5,   1,1.05917,   2.5101,   2
22419,'DALLOW T', 110.0000,1,     0.000,     0.000,   5,   1,1.00748,   3.2140,   1
22804,'DALTON  ',  38.0000,1,     0.000,     0.000,   9,   1,1.04276,   0.9459,   2
22861,'DALT_CAP', 110.0000,1,     0.000,     0.000,   9,   1,1.00500,   1.8981,   1
23001,'DUNFIRTH',  10.0000,1,     0.000,     0.000,   2,   1,1.02448,   5.1390,   2
23019,'DUNFIR_T', 110.0000,1,     0.000,     0.000,   2,   1,1.00700,   5.8047,   1
23604,'ENNIS   ',  38.0000,1,     0.000,     0.000,   7,   1,1.06282,  -2.0528,   2
24804,'FASSAROE',  38.0000,1,     0.000,     0.000,   2,   1,1.02856,   6.5303,   2
25221,'FLAG1   ',  10.5000,1,     0.000,     0.000,   9,   1,1.01768,   3.8440,   1
25222,'FLAG2   ',  10.5000,1,     0.000,     0.000,   9,   1,1.01764,   3.8405,   1
25404,'FRANCIS ',  38.0000,1,     0.000,     0.000,   1,   1,1.02875,   5.4962,   2
25604,'FINGLAS ',  38.0000,1,     0.000,     0.000,   2,   1,1.02354,   4.1368,   1
25621,'FING1   ',  10.5000,1,     0.000,     0.000,   2,   1,1.01473,   8.5143,   1
25622,'FING2   ',  10.5000,1,     0.000,     0.000,   2,   1,1.01465,   8.5142,   1
25623,'FING3   ',  10.5000,1,     0.000,     0.000,   2,   1,1.01418,   8.5176,   1
25624,'FING4   ',  10.5000,1,     0.000,     0.000,   2,   1,1.01418,   8.5176,   1
26802,'GILRA   ',  20.0000,1,     0.000,     0.000,   9,   1,1.04566,   0.1681,   5
27004,'GLASMORE',  38.0000,1,     0.000,     0.000,   2,   1,1.02448,   4.7636,   2
27204,'GRIFFINR',  38.0000,2,     0.000,     0.000,   2,   1,1.02905,   4.8037,   2
27219,'GRFRAT T', 110.0000,1,     0.000,     0.000,   2,   1,1.01181,   6.3874,   2
27404,'GREAT IS',  38.0000,1,     0.000,     0.000,   6,   1,1.04096,   1.8004,   2
27421,'GISL    ',  10.5000,1,     0.000,     0.000,   6,   1,1.00728,   3.5087,   1
27422,'GISL    ',  10.5000,1,     0.000,     0.000,   6,   1,1.00724,   3.5085,   1
27471,'GISLG1  ',  10.5000,2,     0.000,     0.000,   6,   1,1.00459,   2.6033,   3
27472,'GISLG2  ',  10.5000,2,     0.000,     0.000,   6,   1,1.00459,   2.6033,   3
27473,'GISLG3  ',  13.8000,2,     0.000,     0.000,   6,   1,1.01290,   3.8099,   3
27604,'GRANGE  ',  38.0000,1,     0.000,     0.000,   1,   1,1.02534,   5.4716,   2
27802,'GALWAY  ',  20.0000,1,     0.000,     0.000,   9,   1,1.06027,   1.3762,   2
27804,'GALWAY  ',  38.0000,2,     0.000,     0.000,   9,   1,1.05401,  -0.1322,   2
28002,'GOLAGH  ',  22.0000,2,     0.000,     0.000,   9,   1,0.99558,   2.6481,   1
28019,'GOLAGH T', 110.0000,1,     0.000,     0.000,   9,   1,0.98002,   0.7317,   1
28261,'GWE_CAP ', 110.0000,1,     0.000,     0.000,   9,   1,0.97951,   1.4556,   1
28604,'GRANGE C',  38.0000,1,     0.000,     0.000,   1,   1,1.02424,   6.2976,   2
28804,'GLENLARA',  38.0000,1,     0.000,     0.000,   3,   1,1.05111,  -2.5108,   1
29401,'HAROLDS_',  10.0000,1,     0.000,     0.000,   1,   1,1.02418,   6.7220,   2
29671,'HUNT_CT ',  16.0000,2,     0.000,     0.000,   2,   2,0.99026,  15.9272,   4
29672,'HUNT_ST ',  10.5000,2,     0.000,     0.000,   2,   2,0.99241,  15.8644,   4
30671,'INISG1  ',  10.5000,2,     0.000,     0.000,   3,   1,1.00765,  -1.4897,   3
30804,'INCHICOR',  38.0000,1,     0.000,     0.000,   1,   1,1.02647,   5.3899,   2
30821,'INCH1   ',  10.5000,1,     0.000,     0.000,   1,   1,1.01880,   8.4575,   2
30822,'INCH2   ',  10.5000,1,     0.000,     0.000,   1,   1,1.01880,   8.4575,   2
31004,'IKERRIN ',  38.0000,1,     0.000,     0.000,   5,   1,1.04073,  -1.0151,   2
31019,'IKERIN T', 110.0000,1,     0.000,     0.000,   5,   1,0.99159,   0.0965,   1
31271,'DUBLIN B',  21.0000,2,     0.000,     0.000,   2,   2,0.98473,  16.5997,   4
32021,'KRAH    ',  10.5000,1,     0.000,     0.000,   3,   1,1.01153,  -0.2357,   1
32022,'KRAH    ',  10.5000,1,     0.000,     0.000,   3,   1,1.01185,  -0.2356,   1
32201,'KILBARRY',  10.0000,1,     0.000,     0.000,   3,   1,1.05135,  -2.3188,   1
32204,'KILBARRY',  38.0000,1,     0.000,     0.000,   3,   1,1.04797,  -3.7985,   2
32404,'KILTEEL ',  38.0000,1,     0.000,     0.000,   8,   1,1.03550,   4.8073,   2
32419,'KILTEL T', 110.0000,1,     0.000,     0.000,   8,   1,1.00269,   5.8409,   1
32604,'KILKENNY',  38.0000,2,     0.000,     0.000,   8,   1,1.04677,   2.2580,   2
32821,'KLON    ',  10.5000,1,     0.000,     0.000,   7,   1,1.05713,   0.6236,   1
32822,'KLON    ',  10.5000,1,     0.000,     0.000,   7,   1,1.05714,   0.6236,   1
32824,'KLON    ',  10.5000,1,     0.000,     0.000,   7,   1,1.05645,   0.5943,   1
33004,'KNOCKERA',  38.0000,1,     0.000,     0.000,   7,   1,1.05248,  -2.7507,   2
33421,'KELLIS  ',  10.5000,1,     0.000,     0.000,   8,   1,1.02771,   5.3754,   1