<!DOCTYPE HTML PUBLIC "-//W3C//DTD HTML 4.0 Transitional//EN">
<!-- saved from url=(0071)http://www.eirgrid.com/EirgridPortal/uploads/Publications/snv07_web.raw -->
<HTML><HEAD>
<META http-equiv=Content-Type content="text/html; charset=windows-1252">
<META content="MSHTML 6.00.2900.3492" name=GENERATOR></HEAD>
<BODY><PRE>0,   100.00          / PSS/E-29.4    THU, JUL 22 2004  14:51
ESB NATIONAL GRID FORECAST STATEMENT 2004-2010
BASECASE SUMMER NIGHT VALLEY 2007
   10,'F_M_____',  38.0000,1,     0.000,     0.000,   1,   1,1.04146,   5.1535,   2
   11,'FMN_LOOP',  38.0000,1,     0.000,     0.000,   1,   1,1.03492,   3.7393,   2
   12,'BEDFORD ',  38.0000,1,     0.000,     0.000,   1,   1,1.02898,   4.5330,   2
   13,'M_R_____',  38.0000,1,     0.000,     0.000,   1,   1,1.03237,   4.5565,   2
   14,'F_I_____',  38.0000,1,     0.000,     0.000,   1,   1,1.02153,   5.2275,   2
   15,'I_M_____',  38.0000,1,     0.000,     0.000,   1,   1,1.02563,   4.3700,   2
   41,'TANEY   ', 110.0000,1,     0.000,     0.000,   1,   1,1.01204,   6.2394,   1
   51,'MISERY H', 110.0000,1,     0.000,     0.000,   1,   1,1.01505,   6.7375,   1
   52,'MISERY H',  38.0000,1,     0.000,     0.000,   1,   1,1.01505,   6.7375,   1
 1021,'ARDNACRU', 110.0000,1,     0.000,     0.000,   7,   1,1.00476,   6.2576,   1
 1041,'AGHADA  ', 110.0000,1,     0.000,     0.000,   3,   1,0.99695,   4.1940,   1
 1042,'AGHADA  ', 220.0000,1,     0.000,     0.000,   3,   1,0.99029,   4.8905,   1
 1061,'ARIGNA  ', 110.0000,1,     0.000,     0.000,   9,   1,1.00138,   9.1985,   2
 1081,'AHANE   ', 110.0000,1,     0.000,     0.000,   7,   1,1.01476,   6.1180,   2
 1101,'ANNER   ', 110.0000,1,     0.000,     0.000,   5,   3,0.99151,   3.8532,   5
 1121,'ARKLOW  ', 110.0000,1,     0.000,     0.000,   6,   1,1.01132,   7.8145,   1
 1122,'ARKLOW  ', 220.0000,1,     0.000,     0.000,   6,   1,1.03064,   7.5544,   1
 1141,'ATHLONE ', 110.0000,1,     0.000,     0.000,   8,   1,0.99472,   9.7998,   1
 1151,'ARKLOW B', 110.0000,2,     0.000,     0.000,   6,   1,1.01459,   8.1041,   1
 1161,'AUGHINIS', 110.0000,1,     0.000,     0.000,   7,   3,1.00000,   9.5748,   1
 1171,'SEALROCK', 110.0000,1,     0.000,     0.000,   7,   1,1.00019,   9.6267,   1
 1181,'ARVA    ', 110.0000,1,     0.000,     0.000,  10,   1,0.99504,   7.6201,   1
 1191,'SEALROCK', 110.0000,1,     0.000,     0.000,   7,   1,1.00019,   9.6267,   1
 1201,'ARTANE  ', 110.0000,1,     0.000,     0.000,   1,   1,1.01926,   6.3764,   2
 1221,'ATHY    ', 110.0000,1,     0.000,     0.000,   8,   1,1.00773,   7.5031,   1
 1231,'BALLYWAT', 110.0000,2,     0.000,     0.000,   6,   1,1.01163,   7.2214,   1
 1251,'BOOLTIAG', 110.0000,2,     0.000,     0.000,   7,   1,1.00101,   7.8403,   1
 1281,'BALLYLIC', 110.0000,1,     0.000,     0.000,   3,   1,0.98696,   4.1648,   2
 1301,'BALLYBEG', 110.0000,1,     0.000,     0.000,   6,   1,1.01228,   7.5212,   1
 1321,'BLAKE   ', 110.0000,1,     0.000,     0.000,   8,   1,1.00145,   7.7136,   2
 1341,'BINBANE ', 110.0000,1,     0.000,     0.000,   9,   1,0.98472,   9.0494,   2
 1361,'BALLYDIN', 110.0000,1,     0.000,     0.000,   5,   1,0.99479,   4.0769,   1
 1381,'BARNAHEL', 110.0000,1,     0.000,     0.000,   3,   1,0.99214,   3.8365,   1
 1401,'BELLACOR', 110.0000,1,     0.000,     0.000,   9,   1,0.99510,   8.7057,   1
 1421,'BLACKROC', 110.0000,1,     0.000,     0.000,   2,   2,1.01569,   7.4142,   2
 1441,'BANDON  ', 110.0000,1,     0.000,     0.000,   3,   1,0.98442,   3.7145,   1
 1461,'BARRYMOR', 110.0000,1,     0.000,     0.000,   5,   1,0.99935,   3.8541,   2
 1481,'BUTLERST', 110.0000,1,     0.000,     0.000,   5,   1,1.00381,   4.6461,   1
 1501,'BRINNY  ', 110.0000,1,     0.000,     0.000,   3,   1,0.98427,   3.7049,   5
 1511,'BRINNY  ', 110.0000,1,     0.000,     0.000,   3,   1,0.98427,   3.7054,   5
 1541,'BANOGE  ', 110.0000,1,     0.000,     0.000,   6,   1,1.00850,   7.2247,   1
 1581,'CABRA   ', 110.0000,1,     0.000,     0.000,   1,   2,1.01902,   6.3711,   2
 1601,'CLASHAVO', 110.0000,1,     0.000,     0.000,   3,   1,0.99518,   4.8538,   1
 1602,'CLASHAVO', 220.0000,1,     0.000,     0.000,   3,   1,0.99598,   6.1481,   1
 1621,'COOLROE ', 110.0000,1,     0.000,     0.000,   3,   1,0.99541,   3.8940,   1
 1631,'CORDERRY', 110.0000,1,     0.000,     0.000,   9,   1,1.00069,   9.2676,   1
 1641,'CASHLA  ', 110.0000,1,     0.000,     0.000,   9,   1,1.00274,  10.6598,   1
 1642,'CASHLA  ', 220.0000,1,     0.000,     0.000,   9,   1,1.00223,  12.1954,   1
 1661,'CASTLEBA', 110.0000,1,     0.000,     0.000,   9,   1,0.99765,   8.8268,   1
 1681,'CARRIGAD', 110.0000,1,     0.000,     0.000,   3,   1,0.99479,   4.3264,   1
 1701,'CATH_FAL', 110.0000,1,     0.000,     0.000,   9,   1,0.99177,   9.4769,   1
 1721,'CAHIR   ', 110.0000,1,     0.000,     0.000,   5,   1,0.99665,   4.2227,   1
 1741,'CARRICKM', 110.0000,1,     0.000,     0.000,   2,   2,1.01573,   7.4682,   2
 1742,'CARRICKM', 220.0000,1,     0.000,     0.000,   2,   2,1.03298,   8.3789,   1
 1761,'CLIFF   ', 110.0000,1,     0.000,     0.000,   9,   1,0.99179,   9.4766,   1
 1781,'CASTLEFA', 110.0000,1,     0.000,     0.000,   7,   3,0.99958,   9.5539,   5
 1791,'CASTLEFA', 110.0000,1,     0.000,     0.000,   7,   3,0.99958,   9.5539,   5
 1801,'COOKSTOW', 110.0000,1,     0.000,     0.000,   1,   2,1.00951,   6.2649,   2
 1821,'CLOON   ', 110.0000,1,     0.000,     0.000,   9,   1,1.00059,  10.1351,   2
 1841,'CRANE   ', 110.0000,1,     0.000,     0.000,   6,   1,1.00761,   6.7544,   1
 1861,'CARRICK ', 110.0000,1,     0.000,     0.000,   9,   1,1.00252,   8.9747,   1
 1871,'COLLEGE ', 110.0000,1,     0.000,     0.000,   2,   1,1.00764,   6.8543,   1
 1881,'CHARLEVI', 110.0000,1,     0.000,     0.000,   3,   1,1.00184,   4.6653,   1
 1901,'CARLOW  ', 110.0000,1,     0.000,     0.000,   8,   1,1.01597,   6.4389,   1
 1921,'COW CROS', 110.0000,1,     0.000,     0.000,   3,   1,0.99480,   3.8811,   1
 1931,'CUNGHILL', 110.0000,1,     0.000,     0.000,   9,   1,0.99858,   9.1157,   4
 1941,'CUSHALIN', 110.0000,1,     0.000,     0.000,   8,   1,1.00000,  11.7104,   1
 1961,'CASTLEVI', 110.0000,1,     0.000,     0.000,   3,   1,1.00060,   3.9049,   1
 1981,'CORRACLA', 110.0000,1,     0.000,     0.000,   9,   1,0.98691,   7.9011,   1
 2001,'CULLENAG', 110.0000,1,     0.000,     0.000,   5,   1,1.00429,   4.6960,   1
 2002,'CULLENAG', 220.0000,1,     0.000,     0.000,   5,   1,1.00572,   5.5741,   1
 2021,'CITY WES', 110.0000,1,     0.000,     0.000,   1,   1,1.00996,   6.2847,   2
 2041,'CORDUFF ', 110.0000,1,     0.000,     0.000,   2,   1,1.00842,   6.9270,   1
 2042,'CORDUFF ', 220.0000,1,     0.000,     0.000,   2,   1,1.03551,   8.2560,   1
 2081,'DUNKETTL', 110.0000,1,     0.000,     0.000,   3,   1,1.00060,   3.9049,   5
 2101,'DUNDALK ', 110.0000,1,     0.000,     0.000,  10,   1,1.00275,   6.7093,   1
 2121,'DRUMLINE', 110.0000,1,     0.000,     0.000,   7,   1,0.99372,   6.4513,   1
 2141,'DUNGARVA', 110.0000,1,     0.000,     0.000,   5,   1,0.99974,   4.0076,   1
 2161,'DOON    ', 110.0000,1,     0.000,     0.000,   5,   1,0.99212,   3.8905,   1
 2181,'DRYBRIDG', 110.0000,1,     0.000,     0.000,  10,   1,0.99919,   6.1776,   1
 2202,'DUNSTOWN', 220.0000,1,     0.000,     0.000,   2,   1,1.02625,   7.8881,   1
 2204,'DUNSTOWN', 380.0000,1,     0.000,     0.000,   2,   1,1.03389,  10.9340,   1
 2221,'DUNMANWA', 110.0000,1,     0.000,     0.000,   3,   1,0.98681,   4.1323,   1
 2231,'DERRYBRI', 110.0000,2,     0.000,     0.000,   9,   1,1.00987,   9.8301,   1
 2241,'DALLOW  ', 110.0000,1,     0.000,     0.000,   5,   1,0.99944,   9.6780,   2
 2261,'DERRYIRO', 110.0000,1,     0.000,     0.000,   2,   1,1.00266,   5.6180,   1
 2281,'DALTON  ', 110.0000,1,     0.000,     0.000,   9,   1,0.99755,   9.2673,   1
 2301,'DUNFIRTH', 110.0000,1,     0.000,     0.000,   2,   1,1.00356,   5.8445,   2
 2321,'DRUMKEEN', 110.0000,1,     0.000,     0.000,   9,   1,0.99389,  11.0623,   1
 2361,'ENNIS   ', 110.0000,1,     0.000,     0.000,   7,   1,0.99733,   7.4597,   1
 2481,'FASS EAS', 110.0000,1,     0.000,     0.000,   2,   2,1.01396,   7.3515,   2
 2491,'FASS WES', 110.0000,1,     0.000,     0.000,   2,   2,1.01389,   7.3520,   2
 2521,'FLAGFORD', 110.0000,1,     0.000,     0.000,   9,   1,1.00333,   9.0406,   1
 2522,'FLAGFORD', 220.0000,1,     0.000,     0.000,   9,   1,1.00409,   9.6523,   1
 2541,'FRN ST A', 110.0000,1,     0.000,     0.000,   1,   2,1.01481,   6.6998,   2
 2551,'FRN ST B', 110.0000,1,     0.000,     0.000,   1,   2,1.01221,   6.4097,   2
 2561,'FIN_URBA', 110.0000,1,     0.000,     0.000,   2,   2,1.01937,   6.4583,   1
 2562,'FINGLAS ', 220.0000,1,     0.000,     0.000,   2,   2,1.03749,   8.2542,   1
 2571,'FIN_RURA', 110.0000,1,     0.000,     0.000,   2,   2,1.00751,   6.8342,   1
 2681,'GILRA   ', 110.0000,1,     0.000,     0.000,   9,   3,0.99978,   8.8310,   2
 2701,'GLASMORE', 110.0000,1,     0.000,     0.000,   2,   2,1.01641,   6.1190,   2
 2721,'GRIFFINR', 110.0000,1,     0.000,     0.000,   2,   2,1.00868,   6.4467,   2
 2731,'GRIFFINR', 110.0000,1,     0.000,     0.000,   2,   1,1.00860,   6.4584,   2
 2741,'GREAT IS', 110.0000,1,     0.000,     0.000,   6,   1,1.01002,   5.1049,   1
 2742,'GREAT IS', 220.0000,1,     0.000,     0.000,   6,   1,1.01009,   6.0098,   1
 2761,'GRANGE  ', 110.0000,1,     0.000,     0.000,   1,   2,1.01948,   6.3652,   2
 2781,'GALWAY  ', 110.0000,1,     0.000,     0.000,   9,   1,0.99866,  10.3666,   1
 2801,'GOLAGH  ', 110.0000,1,     0.000,     0.000,   9,   1,0.99196,  10.2868,   1
 2821,'GORTAWEE', 110.0000,1,     0.000,     0.000,   9,   1,0.98596,   7.5953,   1
 2841,'GORMAN  ', 110.0000,1,     0.000,     0.000,  10,   1,1.00205,   6.2245,   1
 2842,'GORMAN  ', 220.0000,1,     0.000,     0.000,  10,   1,1.01921,   7.4552,   1
 2861,'GRANGE C', 110.0000,1,     0.000,     0.000,   1,   1,1.00825,   6.0875,   2
 2881,'GLENLARA', 110.0000,1,     0.000,     0.000,   3,   1,0.99889,   4.4539,   2
 2921,'HAULBOWL', 110.0000,1,     0.000,     0.000,   3,   3,0.99281,   3.8819,   5
 2931,'HAULBOWL', 110.0000,1,     0.000,     0.000,   3,   3,0.99215,   3.8362,   5
 2941,'HAROLDS ', 110.0000,1,     0.000,     0.000,   1,   2,1.01491,   6.7139,   2
 2962,'HUNTSTOW', 220.0000,1,     0.000,     0.000,   2,   1,1.03739,   8.3355,   1
 2981,'HARNETTS', 110.0000,1,     0.000,     0.000,   3,   1,0.99447,   4.3193,   2
 3061,'INISCARR', 110.0000,1,     0.000,     0.000,   3,   1,0.99527,   4.0211,   1
 3081,'INCHICOR', 110.0000,1,     0.000,     0.000,   1,   2,1.01268,   6.4463,   2
 3082,'INCHICOR', 220.0000,1,     0.000,     0.000,   2,   2,1.03797,   7.9169,   1
 3101,'IKERRIN ', 110.0000,1,     0.000,     0.000,   5,   1,0.99564,   6.2662,   2
 3122,'IRISHTOW', 220.0000,1,     0.000,     0.000,   2,   1,1.03647,   8.4118,   1
 3201,'KNOCKRAH', 110.0000,1,     0.000,     0.000,   3,   1,1.00447,   4.0093,   1
 3202,'KNOCKRAH', 220.0000,1,     0.000,     0.000,   3,   1,0.98927,   5.0618,   1
 3221,'KILBARRY', 110.0000,1,     0.000,     0.000,   3,   1,0.99633,   3.7319,   1
 3241,'KILTEEL ', 110.0000,1,     0.000,     0.000,   8,   1,1.00225,   7.1608,   2
 3261,'KILKENNY', 110.0000,1,     0.000,     0.000,   8,   1,1.00801,   5.3546,   1
 3281,'KILLONAN', 110.0000,1,     0.000,     0.000,   7,   1,1.01473,   6.1185,   1
 3282,'KILLONAN', 220.0000,1,     0.000,     0.000,   7,   1,0.98399,   7.3660,   1
 3301,'KNOCKERA', 110.0000,1,     0.000,     0.000,   7,   1,0.99388,   5.7496,   1
 3321,'KNOCKUMB', 110.0000,1,     0.000,     0.000,  10,   3,0.99637,   5.9350,   5
 3341,'KELLIS  ', 110.0000,1,     0.000,     0.000,   8,   1,1.01750,   6.3847,   1
 3342,'KELLIS  ', 220.0000,1,     0.000,     0.000,   8,   1,1.01540,   6.8426,   1
 3361,'KILTOY  ', 110.0000,1,     0.000,     0.000,   9,   3,0.98980,  10.8473,   5
 3371,'KILTOY  ', 110.0000,1,     0.000,     0.000,   9,   3,0.98971,  10.8418,   5
 3381,'KINNEGAD', 110.0000,1,     0.000,     0.000,   2,   1,1.00174,   5.5618,   1
 3401,'KILLOTER', 110.0000,1,     0.000,     0.000,   5,   1,1.00470,   4.7040,   1
 3421,'KILMORE ', 110.0000,1,     0.000,     0.000,   1,   1,1.01924,   6.3801,   2
 3441,'KILMURRY', 110.0000,1,     0.000,     0.000,   8,   1,1.00887,   5.0692,   1
 3501,'LANESBOR', 110.0000,1,     0.000,     0.000,   9,   1,1.00000,  10.5841,   1
 3521,'LOUTH   ', 110.0000,1,     0.000,     0.000,  10,   1,1.00877,   7.0981,   1
 3522,'LOUTH   ', 220.0000,1,     0.000,     0.000,  10,   1,1.01985,   7.7545,   1
 3541,'LIMERICK', 110.0000,1,     0.000,     0.000,   7,   1,1.00881,   6.3860,   1
 3561,'LISDRUM ', 110.0000,1,     0.000,     0.000,  10,   1,0.99810,   6.9326,   1
 3581,'LETTERKE', 110.0000,1,     0.000,     0.000,   9,   1,0.99096,  10.9225,   1
 3601,'LIBERTY ', 110.0000,1,     0.000,     0.000,   3,   1,0.99525,   3.6689,   2
 3611,'LIBERTY ', 110.0000,1,     0.000,     0.000,   3,   1,0.99527,   3.6738,   2
 3621,'LISHEEN ', 110.0000,1,     0.000,     0.000,   5,   1,0.99394,   4.5250,   1
 3761,'MACETOWN', 110.0000,1,     0.000,     0.000,   2,   2,1.00571,   6.6648,   1
 3781,'MCDERMOT', 110.0000,1,     0.000,     0.000,   1,   2,1.01902,   6.3550,   2
 3801,'MIDLETON', 110.0000,1,     0.000,     0.000,   3,   1,1.00031,   3.9355,   1
 3821,'MEATH HI', 110.0000,1,     0.000,     0.000,  10,   1,1.00536,   6.9619,   2
 3841,'MAYNOOTH', 110.0000,1,     0.000,     0.000,   2,   2,1.00901,   6.5031,   1
 3842,'MAYNOOTH', 220.0000,1,     0.000,     0.000,   2,   2,1.02836,   7.7447,   1
 3861,'MILLTOWN', 110.0000,1,     0.000,     0.000,   1,   2,1.01504,   6.7532,   2
 3871,'MILLTOWN', 110.0000,1,     0.000,     0.000,   1,   2,1.01209,   6.2516,   2
 3881,'MACROOM ', 110.0000,1,     0.000,     0.000,   3,   1,0.99472,   4.3450,   1
 3901,'MONETEEN', 110.0000,1,     0.000,     0.000,   7,   1,1.00595,   6.8760,   1
 3941,'MONEYPOI', 110.0000,1,     0.000,     0.000,   7,   1,1.00151,   7.8992,   1
 3942,'MONEYPOI', 220.0000,1,     0.000,     0.000,   7,   1,1.01789,  10.7623,   1
 3944,'MNYPG1G3', 380.0000,1,     0.000,     6.000,   2,   1,1.04628,  15.2466,   1
 3954,'MNYPG2  ', 380.0000,1,     0.000,     6.000,   7,   1,1.05000,  13.2560,   1
 3961,'MARINA  ', 110.0000,1,     0.000,     0.000,   3,   1,0.99528,   3.6753,   1
 3981,'MUNGRET ', 110.0000,1,     0.000,     0.000,   7,   3,1.00580,   6.8670,   5
 3991,'MUNGRET ', 110.0000,1,     0.000,     0.000,   7,   3,1.00581,   6.8674,   5
 4001,'MULLINGA', 110.0000,1,     0.000,     0.000,   9,   1,0.99692,   8.6025,   1
 4021,'MALLOW  ', 110.0000,1,     0.000,     0.000,   3,   1,0.99883,   4.1288,   1
 4041,'MOY     ', 110.0000,1,     0.000,     0.000,   9,   1,0.99339,   8.5568,   1
 4061,'MULLAGHA', 110.0000,1,     0.000,     0.000,  10,   1,1.00395,   6.7883,   2
 4071,'MEENTYCA', 110.0000,2,     0.000,     0.000,   9,   1,0.99584,  11.3089,   1
 4081,'MONREAD ', 110.0000,1,     0.000,     0.000,   8,   1,1.00080,   7.6120,   1
 4201,'NEWBRIDG', 110.0000,1,     0.000,     0.000,   8,   1,0.99985,   8.3229,   1
 4221,'NAVAN   ', 110.0000,1,     0.000,     0.000,  10,   1,1.00003,   6.1603,   1
 4242,'NORTH WA', 220.0000,1,     0.000,     0.000,   2,   2,1.03988,   7.9724,   1
 4261,'NENAGH  ', 110.0000,1,     0.000,     0.000,   7,   1,1.00996,   5.7845,   1
 4281,'NANGOR  ', 110.0000,1,     0.000,     0.000,   1,   1,1.00799,   6.0691,   1
 4341,'OLDCOURT', 110.0000,1,     0.000,     0.000,   3,   3,0.99481,   3.8810,   5
 4351,'OLDCOURT', 110.0000,1,     0.000,     0.000,   3,   3,0.99481,   3.8810,   5
 4361,'OUGHTRAG', 110.0000,1,     0.000,     0.000,   7,   1,0.99873,   6.6185,   2
 4382,'OLDSTREE', 220.0000,1,     0.000,     0.000,   9,   1,1.00961,  15.2062,   1
 4384,'OLDSTREE', 380.0000,1,     0.000,     0.000,   9,   1,1.03611,  14.0232,   1
 4441,'POLLAPHU', 110.0000,1,     0.000,     0.000,   8,   1,1.01369,   6.2490,   1
 4451,'POOLBEG ', 110.0000,1,     0.000,     0.000,   1,   1,1.01507,   6.7862,   2
 4461,'POOLBEG ', 110.0000,1,     0.000,     0.000,   1,   1,1.01482,   6.8230,   2
 4462,'POOLBEG ', 220.0000,1,     0.000,     0.000,   2,   2,1.04000,   7.8750,   1
 4471,'POOLBEG ', 110.0000,1,     0.000,     0.000,   1,   1,1.01483,   6.8216,   2
 4481,'PORTLAOI', 110.0000,1,     0.000,     0.000,   8,   1,1.00209,   8.8737,   1
 4501,'PLATIN  ', 110.0000,1,     0.000,     0.000,  10,   3,0.99812,   6.1063,   1
 4522,'PROSPECT', 220.0000,1,     0.000,     0.000,   7,   1,1.01246,  10.1227,   1
 4621,'RYEBROOK', 110.0000,1,     0.000,     0.000,   2,   3,0.99785,   5.8489,   1
 4651,'RINGSEND', 110.0000,1,     0.000,     0.000,   1,   2,1.01507,   6.7864,   2
 4681,'RATHKEAL', 110.0000,1,     0.000,     0.000,   7,   1,1.01179,   7.1500,   1
 4701,'RICHMOND', 110.0000,1,     0.000,     0.000,   9,   1,0.99752,  10.4155,   2
 4721,'RAFFEEN ', 110.0000,1,     0.000,     0.000,   3,   1,0.99279,   3.8823,   1
 4722,'RAFFEEN ', 220.0000,1,     0.000,     0.000,   3,   1,0.99031,   4.6806,   1
 4741,'RINAWADE', 110.0000,1,     0.000,     0.000,   2,   3,1.00564,   6.2105,   1
 4761,'RINGASKI', 110.0000,1,     0.000,     0.000,   3,   1,0.99272,   3.8779,   2
 4781,'RATRUSSA', 110.0000,1,     0.000,     0.000,  10,   1,1.00389,   8.0434,   1
 4901,'SHELTON ', 110.0000,1,     0.000,     0.000,   6,   3,1.01133,   7.8145,   5
 4911,'SHELTON ', 110.0000,1,     0.000,     0.000,   6,   3,1.01133,   7.8145,   5
 4941,'SHANNONB', 110.0000,1,     0.000,     0.000,   5,   1,1.00197,  10.0500,   1
 4942,'SHANNONB', 220.0000,1,     0.000,     0.000,   5,   1,1.00000,   8.6136,   1
 4961,'SHANKILL', 110.0000,1,     0.000,     0.000,  10,   1,0.99521,   7.4754,   1
 4981,'SLIGO   ', 110.0000,1,     0.000,     0.000,   9,   1,0.99844,   9.0730,   1
 5001,'SOMERSET', 110.0000,1,     0.000,     0.000,   9,   1,0.99988,  10.1342,   2
 5022,'SHELLYBA', 220.0000,1,     0.000,     0.000,   2,   2,1.03663,   8.3966,   1
 5031,'STEVENST', 110.0000,1,     0.000,     0.000,   2,   1,1.01663,   6.1670,   2
 5041,'SRANANAG', 110.0000,1,     0.000,     0.000,   9,   1,0.99937,   9.2077,   1
 5042,'SRANANAG', 220.0000,1,     0.000,     0.000,   9,   1,1.00282,   9.4652,   1
 5061,'STRATFOR', 110.0000,1,     0.000,     0.000,   8,   1,1.01304,   6.2373,   2
 5071,'SHANEMOR', 110.0000,1,     0.000,     0.000,   9,   1,1.00693,   9.4644,   1
 5141,'TARBERT ', 110.0000,1,     0.000,     0.000,   7,   1,1.01837,   8.5472,   1
 5142,'TARBERT ', 220.0000,1,     0.000,     0.000,   7,   1,1.00723,   9.3815,   1
 5172,'TYNAGH  ', 220.0000,1,     0.000,     0.000,   9,   1,1.00000,  15.7827,   1
 5181,'TRABEG  ', 110.0000,1,     0.000,     0.000,   3,   1,0.99489,   3.6807,   1
 5202,'TURLOUGH', 220.0000,1,     0.000,     0.000,   2,   1,1.02000,   6.0832,   1
 5221,'TULLABRA', 110.0000,1,     0.000,     0.000,   7,   1,1.00150,   7.9102,   2
 5241,'TAWN_A  ', 110.0000,1,     0.000,     0.000,   9,   3,0.99343,   8.5558,   2
 5251,'TAWN_B  ', 110.0000,1,     0.000,     0.000,   9,   3,0.99343,   8.5558,   2
 5261,'TRIEN   ', 110.0000,1,     0.000,     0.000,   7,   1,1.01069,   7.8884,   1
 5281,'TRALEE  ', 110.0000,1,     0.000,     0.000,   7,   1,1.00774,   7.5521,   1
 5301,'THURLES ', 110.0000,1,     0.000,     0.000,   5,   1,0.99670,   4.7029,   1
 5321,'THORNSBE', 110.0000,1,     0.000,     0.000,   2,   1,0.99824,   5.3010,   2
 5341,'TONROE  ', 110.0000,1,     0.000,     0.000,   9,   1,1.00022,   8.9565,   2
 5361,'TRILLICK', 110.0000,1,     0.000,     0.000,   9,   1,0.99448,  11.9946,   2
 5381,'TIPPERAR', 110.0000,1,     0.000,     0.000,   5,   1,1.00191,   4.8130,   1
 5441,'WATERFOR', 110.0000,1,     0.000,     0.000,   5,   1,1.00601,   4.7972,   1
 5462,'WOODLAND', 220.0000,1,     0.000,     0.000,   2,   1,1.03131,   8.5425,   1
 5464,'WOODLAND', 380.0000,1,     0.000,     0.000,   2,   1,1.03098,  11.4857,   1
 5481,'WHITEGAT', 110.0000,1,     0.000,     0.000,   3,   3,0.99706,   4.1192,   1
 5501,'WEXFORD ', 110.0000,1,     0.000,     0.000,   6,   1,1.00551,   6.1009,   1
 5521,'WOLFE TO', 110.0000,1,     0.000,     0.000,   1,   1,1.01893,   6.3491,   2
10204,'ARDNACRU',  38.0000,2,     0.000,     0.000,   7,   1,1.04561,   4.5972,   2
10205,'ARDNACRU',  38.0000,1,     0.000,     0.000,   7,   1,1.03061,   3.2085,   2
10271,'ARDNG1  ',  10.5000,2,     0.000,     0.000,   7,   1,1.00476,   6.2576,   3
10272,'ARDNG2  ',  10.5000,2,     0.000,     0.000,   7,   1,1.00476,   6.2576,   3
10273,'ARDNG3  ',  10.5000,2,     0.000,     0.000,   7,   1,1.00476,   6.2576,   3
10274,'ARDNG4  ',  10.5000,2,     0.000,     0.000,   7,   1,1.00476,   6.2576,   3
10421,'AGHADA  ',  10.5000,1,     0.000,     0.000,   3,   1,0.99194,   4.7155,   1
10471,'AGH_G1  ',  20.0000,2,     0.000,     0.000,   3,   1,0.98864,   4.8905,   3
10472,'AGH_G11 ',  10.5000,2,     0.000,     0.000,   3,   1,0.98864,   4.8905,   3
10473,'AGH_G12 ',  10.5000,2,     0.000,     0.000,   3,   1,0.98864,   4.8905,   3
10474,'AGH_G14 ',  10.5000,2,     0.000,     0.000,   3,   1,0.98864,   4.8905,   3
10602,'ARIGNA  ',  20.0000,2,     0.000,     0.000,   9,   1,1.02099,  10.2933,   2
10619,'ARIGNA_T', 110.0000,1,     0.000,     0.000,   9,   1,1.00139,   9.1960,   1
10801,'AHANE   ',  11.0000,1,     0.000,     0.000,   7,   1,1.02701,   6.1180,   2
11204,'ARKLOW  ',  38.0000,2,     0.000,     0.000,   6,   1,1.03426,   8.2408,   2
11221,'ARKL    ',  10.5000,1,     0.000,     0.000,   6,   1,0.99734,   7.6197,   1
11222,'ARKL    ',  10.5000,1,     0.000,     0.000,   6,   1,1.00896,   7.6196,   1
11404,'ATHLONE ',  38.0000,1,     0.000,     0.000,   9,   1,1.03833,   7.9390,   2
11461,'ATHLONE_', 110.0000,1,     0.000,     0.000,   8,   1,0.99472,   9.7998,   1
11671,'SEALROCK',  11.5000,2,     0.000,     0.000,   7,   1,0.99209,  13.3370,   1
11672,'SEALROCK',  11.5000,2,     0.000,     0.000,   7,   1,0.99209,  13.3370,   4
12001,'ARTANE  ',  10.0000,1,     0.000,     0.000,   1,   1,1.03125,   5.8564,   2
12202,'ATHY    ',  20.0000,1,     0.000,     0.000,   8,   1,1.03208,   6.2715,   1
12804,'BALLYLIC',  38.0000,2,     0.000,     0.000,   3,   1,1.03498,   5.5598,   1
13001,'BALLYBEG',  10.0000,1,     0.000,     0.000,   6,   1,1.02364,   6.8181,   2
13204,'BLAKE   ',  38.0000,1,     0.000,     0.000,   8,   1,1.02292,   6.5211,   2
13219,'BLAKE T ', 110.0000,1,     0.000,     0.000,   8,   1,1.00152,   7.7182,   1
13404,'BINBANE ',  38.0000,2,     0.000,     0.000,   9,   1,1.03021,   7.4816,   2
13601,'BALLYDIN',  10.0000,1,     0.000,     0.000,   5,   1,1.03310,   2.4441,   2
13604,'BALLYDIN',  38.0000,1,     0.000,     0.000,   5,   1,1.04373,   3.8407,   2
13802,'BARNAHEL',  20.0000,1,     0.000,     0.000,   3,   1,1.02524,   0.5794,   2
13804,'BARNAHEL',  38.0000,1,     0.000,     0.000,   3,   1,1.02823,   2.7383,   2
14002,'BELLACOR',  20.0000,2,     0.000,     0.000,   9,   1,1.02244,   9.2002,   2
14061,'BELL_CAP', 110.0000,1,     0.000,     0.000,   9,   1,0.99510,   8.7057,   1
14204,'BLACKROC',  38.0000,1,     0.000,     0.000,   2,   1,1.03454,   5.5302,   2
14401,'BANDON  ',  10.0000,1,     0.000,     0.000,   3,   1,1.02940,   2.8787,   1
14404,'BANDON  ',  38.0000,2,     0.000,     0.000,   3,   1,1.02674,   2.4807,   2
14461,'BAN_CAP ', 110.0000,1,     0.000,     0.000,   3,   1,0.98442,   3.7145,   1
14604,'BARRYMOR',  38.0000,2,     0.000,     0.000,   5,   1,1.02009,   2.8952,   2
14804,'BUTLERST',  38.0000,1,     0.000,     0.000,   5,   1,1.03036,   2.6605,   2
15001,'BRINNY  ',  10.0000,1,     0.000,     0.000,   3,   1,1.02499,   2.5212,   5
15401,'BANOGE  ',  10.0000,1,     0.000,     0.000,   6,   1,1.02454,   7.1611,   2
15801,'CABRA   ',  10.0000,1,     0.000,     0.000,   1,   1,1.03089,   5.6984,   2
16021,'CLASH   ',  10.5000,1,     0.000,     0.000,   3,   1,0.99573,   5.8247,   1
16202,'COOLROE ',  20.0000,1,     0.000,     0.000,   3,   1,1.02501,   3.5498,   2
16302,'CORDERRY',  20.0000,2,     0.000,     0.000,   9,   1,1.00041,  10.6303,   1
16421,'CASH    ',  10.5000,1,     0.000,     0.000,   9,   1,1.00229,  11.8114,   1
16422,'CASH2   ',  10.5000,1,     0.000,     0.000,   9,   1,1.00229,  11.8114,   1
16423,'CASH3   ',  10.5000,1,     0.000,     0.000,   9,   1,1.00229,  11.8114,   1
16461,'CASH_CAP', 110.0000,1,     0.000,     0.000,   9,   1,1.00274,  10.6598,   1
16604,'CASTLEBA',  38.0000,2,     0.000,     0.000,   9,   1,1.02678,   7.2411,   2
16661,'CBAR_CAP', 110.0000,1,     0.000,     0.000,   9,   1,0.99765,   8.8268,   1
16662,'CBAR_SVC', 110.0000,1,     0.000,     0.000,   9,   1,0.99897,   8.8268,   1
16873,'CDRDG3  ',  10.5000,2,     0.000,     0.000,   3,   1,0.99479,   4.3264,   3
17004,'CATH_FAL',  38.0000,2,     0.000,     0.000,   9,   1,1.04095,   8.7219,   2
17061,'CATH_CAP', 110.0000,1,     0.000,     0.000,   9,   1,0.99177,   9.4769,   1
17073,'CATHG3  ',  10.5000,2,     0.000,     0.000,   9,   1,0.99177,   9.4769,   3
17074,'CATHG4  ',  10.5000,2,     0.000,     0.000,   9,   1,0.99177,   9.4769,   3
17204,'CAHIR   ',  38.0000,1,     0.000,     0.000,   5,   1,1.02434,   3.9849,   2
17261,'CAHR_CAP', 110.0000,1,     0.000,     0.000,   5,   1,0.99665,   4.2227,   1
17404,'CARRICKM',  38.0000,1,     0.000,     0.000,   2,   1,1.02459,   6.3011,   2
17421,'CMIN1   ',  10.5000,1,     0.000,     0.000,   2,   1,1.01462,   8.1500,   2
17422,'CMIN2   ',  10.5000,1,     0.000,     0.000,   2,   1,1.01462,   8.1500,   2
17431,'CKMN_PST', 220.0000,1,     0.000,     0.000,   2,   1,1.03953,   7.6305,   1
17462,'CKM_SR  ', 220.0000,1,     0.000,     0.000,   2,   1,1.03298,   8.3789,   1
17671,'CLIFG1  ',  10.5000,2,     0.000,     0.000,   9,   1,0.99179,   9.4766,   3
17672,'CLIFG2  ',  10.5000,2,     0.000,     0.000,   9,   1,0.99179,   9.4766,   3
17802,'CASTLEFA',  20.0000,1,     0.000,     0.000,   7,   1,1.02084,   3.7290,   1
18004,'COOKSTOW',  38.0000,1,     0.000,     0.000,   1,   1,1.02147,   3.9706,   2
18019,'COOKST T', 110.0000,1,     0.000,     0.000,   1,   2,1.00980,   6.2802,   2
18204,'CLOON   ',  38.0000,1,     0.000,     0.000,   9,   1,1.02264,   9.3944,   2
18402,'CRANE   ',  20.0000,1,     0.000,     0.000,   6,   1,1.02055,   6.3618,   2
18404,'CRANE   ',  38.0000,2,     0.000,     0.000,   6,   1,1.02886,   6.0749,   2
18604,'CARRICK ',  38.0000,1,     0.000,     0.000,   9,   1,1.02295,   7.8030,   2
18701,'COLLEGE ',  10.0000,1,     0.000,     0.000,   2,   1,1.02349,   6.8543,   1
18804,'CHARLEVI',  38.0000,1,     0.000,     0.000,   3,   1,1.04059,   3.5110,   2
19004,'CARLOW  ',  38.0000,2,     0.000,     0.000,   8,   1,1.04369,   5.8791,   2
19204,'COW_CROS',  38.0000,1,     0.000,     0.000,   3,   1,1.03388,   2.1208,   2
19302,'CUNGHILL',  20.0000,1,     0.000,     0.000,   9,   1,0.99641,  10.8964,   4
19402,'CUNGHILL',  20.0000,2,     0.000,     0.000,   9,   1,1.00000,  12.6050,   1
19471,'EDENDERR',  11.0000,2,     0.000,     0.000,   8,   1,0.99342,  16.3336,   4
19601,'CASTLEVI',  10.0000,1,     0.000,     0.000,   3,   1,1.02068,   2.6675,   2
20021,'CULLENAG',  10.5000,1,     0.000,     0.000,   5,   1,1.00534,   5.3548,   1
20201,'CITY WES',  10.0000,1,     0.000,     0.000,   1,   1,1.02204,   5.6453,   2
20421,'CORDUFF ',  10.5000,1,     0.000,     0.000,   2,   1,1.01468,   7.9258,   1
20422,'CORDUFF ',  10.5000,1,     0.000,     0.000,   2,   1,1.01466,   7.9258,   1
21004,'DUNDALK ',  38.0000,1,     0.000,     0.000,  10,   1,1.03645,   4.8581,   2
21204,'DRUMLINE',  38.0000,1,     0.000,     0.000,   7,   1,1.04394,   3.0273,   2
21404,'DUNGARVA',  38.0000,1,     0.000,     0.000,   5,   1,1.02250,   2.7268,   2
21604,'DOON    ',  38.0000,1,     0.000,     0.000,   5,   1,1.02744,   1.7144,   2
21661,'DOON_CAP', 110.0000,1,     0.000,     0.000,   5,   1,0.99212,   3.8905,   1
21804,'DRYBRIDG',  38.0000,1,     0.000,     0.000,  10,   1,1.02219,   4.2098,   2
22021,'DUNS    ',  17.5000,1,     0.000,     0.000,   2,   1,1.02161,  10.1694,   1
22204,'DUNMANWA',  38.0000,2,     0.000,     0.000,   3,   1,1.04159,   3.5348,   2
22261,'DUNM_CAP', 110.0000,1,     0.000,     0.000,   3,   1,0.98681,   4.1323,   1
22404,'DALLOW  ',  38.0000,1,     0.000,     0.000,   5,   1,1.03578,   8.8988,   2
22419,'DALLOW T', 110.0000,1,     0.000,     0.000,   5,   1,1.00077,   9.7500,   1
22804,'DALTON  ',  38.0000,1,     0.000,     0.000,   9,   1,1.03408,   8.1444,   2
22861,'DALT_CAP', 110.0000,1,     0.000,     0.000,   9,   1,0.99755,   9.2673,   1
23001,'DUNFIRTH',  10.0000,1,     0.000,     0.000,   2,   1,1.04287,   5.0987,   2
23019,'DUNFIR_T', 110.0000,1,     0.000,     0.000,   2,   1,1.00357,   5.8447,   1
23604,'ENNIS   ',  38.0000,1,     0.000,     0.000,   7,   1,1.02714,   5.4832,   2
24804,'FASSAROE',  38.0000,1,     0.000,     0.000,   2,   1,1.03619,   5.5829,   2
25221,'FLAG1   ',  10.5000,1,     0.000,     0.000,   9,   1,1.01490,   9.5015,   1
25222,'FLAG2   ',  10.5000,1,     0.000,     0.000,   9,   1,1.01487,   9.5003,   1
25404,'FRANCIS ',  38.0000,1,     0.000,     0.000,   1,   1,1.02949,   4.5578,   2
25604,'FINGLAS ',  38.0000,1,     0.000,     0.000,   2,   1,1.02755,   3.5199,   1
25621,'FING1   ',  10.5000,1,     0.000,     0.000,   2,   1,1.01565,   7.8036,   1
25622,'FING2   ',  10.5000,1,     0.000,     0.000,   2,   1,1.01557,   7.8036,   1
25623,'FING3   ',  10.5000,1,     0.000,     0.000,   2,   1,1.01584,   7.8037,   1
25624,'FING4   ',  10.5000,4,     0.000,     0.000,   2,   1,1.00000,   0.0000,   1
26802,'GILRA   ',  20.0000,1,     0.000,     0.000,   9,   1,1.02831,   6.5857,   5
27004,'GLASMORE',  38.0000,1,     0.000,     0.000,   2,   1,1.03407,   4.7618,   2
27204,'GRIFFINR',  38.0000,2,     0.000,     0.000,   2,   1,1.02566,   4.6160,   2
27219,'GRFRAT T', 110.0000,1,     0.000,     0.000,   2,   1,1.00882,   6.4655,   2
27404,'GREAT IS',  38.0000,1,     0.000,     0.000,   6,   1,1.02360,   4.1806,   2
27421,'GISL    ',  10.5000,1,     0.000,     0.000,   6,   1,1.02081,   5.7866,   1
27422,'GISL    ',  10.5000,1,     0.000,     0.000,   6,   1,1.02082,   5.7873,   1