<!DOCTYPE HTML PUBLIC "-//W3C//DTD HTML 4.0 Transitional//EN">
<!-- saved from url=(0069)http://www.eirgrid.com/EirgridPortal/uploads/Publications/w04_web.raw -->
<HTML><HEAD>
<META http-equiv=Content-Type content="text/html; charset=windows-1252">
<META content="MSHTML 6.00.2900.3492" name=GENERATOR></HEAD>
<BODY><PRE>0,   100.00          / PSS/E-29.4    THU, JUL 22 2004  14:43
ESB NATIONAL GRID FORECAST STATEMENT 2004-2010
BASECASE WINTER 2004/2005
   10,'F_M_____',  38.0000,1,     0.000,     0.000,   1,   1,1.05412, -15.7968,   2
   11,'FMN_LOOP',  38.0000,1,     0.000,     0.000,   1,   1,1.05697, -11.5656,   2
   12,'BEDFORD ',  38.0000,1,     0.000,     0.000,   1,   1,1.03033, -14.0148,   2
   13,'M_R_____',  38.0000,1,     0.000,     0.000,   1,   1,1.04214, -13.6304,   2
   14,'F_I_____',  38.0000,1,     0.000,     0.000,   1,   1,1.05264, -13.9544,   2
   15,'I_M_____',  38.0000,1,     0.000,     0.000,   1,   1,1.03615, -13.8883,   2
   41,'TANEY   ', 110.0000,1,     0.000,     0.000,   1,   1,1.06295,  -8.4432,   1
 1021,'ARDNACRU', 110.0000,1,     0.000,     0.000,   7,   1,1.03000, -12.1203,   1
 1041,'AGHADA  ', 110.0000,1,     0.000,     0.000,   3,   1,1.06602, -10.7877,   1
 1042,'AGHADA  ', 220.0000,1,     0.000,     0.000,   3,   1,1.07500,  -8.0167,   1
 1061,'ARIGNA  ', 110.0000,1,     0.000,     0.000,   9,   1,1.05028, -15.4660,   2
 1081,'AHANE   ', 110.0000,1,     0.000,     0.000,   7,   1,1.03849, -11.7490,   2
 1101,'ANNER   ', 110.0000,1,     0.000,     0.000,   5,   3,1.04661, -16.3915,   5
 1121,'ARKLOW  ', 110.0000,1,     0.000,     0.000,   6,   1,1.05726,  -9.0269,   1
 1122,'ARKLOW  ', 220.0000,1,     0.000,     0.000,   6,   1,1.05998,  -6.6170,   1
 1141,'ATHLONE ', 110.0000,1,     0.000,     0.000,   8,   1,1.07248, -14.5202,   1
 1161,'AUGHINIS', 110.0000,1,     0.000,     0.000,   7,   3,1.02611,  -9.3560,   1
 1181,'ARVA    ', 110.0000,1,     0.000,     0.000,  10,   1,1.01634, -15.1218,   1
 1201,'ARTANE  ', 110.0000,1,     0.000,     0.000,   1,   1,1.05628,  -9.0460,   2
 1251,'BOOLTIAG', 110.0000,2,     0.000,     0.000,   7,   1,1.01590, -13.2544,   1
 1281,'BALLYLIC', 110.0000,1,     0.000,     0.000,   3,   1,1.04814, -13.4680,   2
 1301,'BALLYBEG', 110.0000,1,     0.000,     0.000,   6,   1,1.05148,  -8.7536,   1
 1321,'BLAKE   ', 110.0000,1,     0.000,     0.000,   8,   1,1.05930,  -7.3088,   2
 1341,'BINBANE ', 110.0000,1,     0.000,     0.000,   9,   1,1.02184, -19.7744,   2
 1361,'BALLYDIN', 110.0000,1,     0.000,     0.000,   5,   1,1.04886, -15.3420,   1
 1381,'BARNAHEL', 110.0000,1,     0.000,     0.000,   3,   1,1.06552, -12.0945,   1
 1401,'BELLACOR', 110.0000,1,     0.000,     0.000,   9,   1,1.05286, -20.9677,   1
 1421,'BLACKROC', 110.0000,1,     0.000,     0.000,   2,   2,1.05209,  -7.6096,   2
 1441,'BANDON  ', 110.0000,1,     0.000,     0.000,   3,   1,1.05309, -13.5235,   1
 1461,'BARRYMOR', 110.0000,1,     0.000,     0.000,   5,   1,1.05469, -13.6052,   2
 1481,'BUTLERST', 110.0000,1,     0.000,     0.000,   5,   1,1.05092, -13.4255,   1
 1501,'BRINNY  ', 110.0000,1,     0.000,     0.000,   3,   1,1.05295, -13.5319,   5
 1511,'BRINNY  ', 110.0000,1,     0.000,     0.000,   3,   1,1.05296, -13.5314,   5
 1581,'CABRA   ', 110.0000,1,     0.000,     0.000,   1,   2,1.05569,  -9.0719,   2
 1601,'CLASHAVO', 110.0000,1,     0.000,     0.000,   3,   1,1.05994, -10.7892,   1
 1602,'CLASHAVO', 220.0000,1,     0.000,     0.000,   3,   1,1.06502,  -7.3081,   1
 1621,'COOLROE ', 110.0000,1,     0.000,     0.000,   3,   1,1.05805, -12.0979,   1
 1641,'CASHLA  ', 110.0000,1,     0.000,     0.000,   9,   1,1.06492, -12.3982,   1
 1642,'CASHLA  ', 220.0000,1,     0.000,     0.000,   9,   1,1.05476,  -6.5943,   1
 1661,'CASTLEBA', 110.0000,1,     0.000,     0.000,   9,   1,1.07079, -20.1117,   1
 1681,'CARRIGAD', 110.0000,1,     0.000,     0.000,   3,   1,1.05700, -11.7781,   1
 1701,'CATH_FAL', 110.0000,1,     0.000,     0.000,   9,   1,1.05000, -18.5776,   1
 1721,'CAHIR   ', 110.0000,1,     0.000,     0.000,   5,   1,1.05321, -16.4952,   1
 1741,'CARRICKM', 110.0000,1,     0.000,     0.000,   2,   2,1.05332,  -7.4875,   2
 1742,'CARRICKM', 220.0000,1,     0.000,     0.000,   2,   2,1.07186,  -3.7435,   1
 1761,'CLIFF   ', 110.0000,1,     0.000,     0.000,   9,   1,1.05277, -18.4172,   1
 1781,'CASTLEFA', 110.0000,1,     0.000,     0.000,   7,   3,1.02570,  -9.3759,   5
 1791,'CASTLEFA', 110.0000,1,     0.000,     0.000,   7,   3,1.02570,  -9.3759,   5
 1801,'COOKSTOW', 110.0000,1,     0.000,     0.000,   1,   2,1.05847,  -8.4734,   2
 1821,'CLOON   ', 110.0000,1,     0.000,     0.000,   9,   1,1.05912, -14.8113,   2
 1841,'CRANE   ', 110.0000,1,     0.000,     0.000,   6,   1,1.03709, -12.7136,   1
 1861,'CARRICK ', 110.0000,1,     0.000,     0.000,   9,   1,1.05189, -14.4537,   1
 1871,'COLLEGE ', 110.0000,1,     0.000,     0.000,   2,   1,1.05627,  -9.1773,   1
 1881,'CHARLEVI', 110.0000,1,     0.000,     0.000,   3,   1,1.02145, -13.4303,   1
 1901,'CARLOW  ', 110.0000,1,     0.000,     0.000,   8,   1,1.05082, -10.5611,   1
 1921,'COW CROS', 110.0000,1,     0.000,     0.000,   3,   1,1.06436, -11.9023,   1
 1931,'CUNGHILL', 110.0000,1,     0.000,     0.000,   9,   1,1.03282, -19.7947,   4
 1941,'CUSHALIN', 110.0000,1,     0.000,     0.000,   8,   1,1.07500,  -5.3408,   1
 1961,'CASTLEVI', 110.0000,1,     0.000,     0.000,   3,   1,1.06412, -11.8542,   1
 1981,'CORRACLA', 110.0000,1,     0.000,     0.000,   9,   1,1.03320, -17.2620,   1
 2001,'CULLENAG', 110.0000,1,     0.000,     0.000,   5,   1,1.05910, -13.0506,   1
 2002,'CULLENAG', 220.0000,1,     0.000,     0.000,   5,   1,1.05252,  -9.7728,   1
 2021,'CITY WES', 110.0000,1,     0.000,     0.000,   1,   1,1.06000,  -8.3933,   2
 2081,'DUNKETTL', 110.0000,1,     0.000,     0.000,   3,   1,1.06412, -11.8542,   5
 2101,'DUNDALK ', 110.0000,1,     0.000,     0.000,  10,   1,1.03429, -10.8184,   1
 2121,'DRUMLINE', 110.0000,1,     0.000,     0.000,   7,   1,1.01544, -13.2182,   1
 2141,'DUNGARVA', 110.0000,1,     0.000,     0.000,   5,   1,1.04571, -13.5383,   1
 2161,'DOON    ', 110.0000,1,     0.000,     0.000,   5,   1,1.04719, -16.3580,   1
 2181,'DRYBRIDG', 110.0000,1,     0.000,     0.000,  10,   1,0.99925, -12.6815,   1
 2202,'DUNSTOWN', 220.0000,1,     0.000,     0.000,   2,   1,1.07470,  -3.6946,   1
 2204,'DUNSTOWN', 380.0000,1,     0.000,     0.000,   2,   1,1.03427,  -0.3672,   1
 2221,'DUNMANWA', 110.0000,1,     0.000,     0.000,   3,   1,1.04883, -13.4345,   1
 2231,'DERRYBRI', 110.0000,2,     0.000,     0.000,   9,   1,1.04392, -12.1734,   1
 2241,'DALLOW  ', 110.0000,1,     0.000,     0.000,   5,   1,1.04935, -12.4289,   2
 2261,'DERRYIRO', 110.0000,1,     0.000,     0.000,   2,   1,1.03437, -10.2892,   1
 2281,'DALTON  ', 110.0000,1,     0.000,     0.000,   9,   1,1.06364, -18.6143,   1
 2301,'DUNFIRTH', 110.0000,1,     0.000,     0.000,   2,   1,1.04275,  -9.6434,   2
 2321,'DRUMKEEN', 110.0000,1,     0.000,     0.000,   9,   1,1.04208, -21.3736,   1
 2361,'ENNIS   ', 110.0000,1,     0.000,     0.000,   7,   1,1.01721, -13.3415,   1
 2481,'FASS EAS', 110.0000,1,     0.000,     0.000,   2,   2,1.04686,  -7.8205,   2
 2491,'FASS WES', 110.0000,1,     0.000,     0.000,   2,   2,1.04665,  -7.8178,   2
 2521,'FLAGFORD', 110.0000,1,     0.000,     0.000,   9,   1,1.05540, -14.2584,   1
 2522,'FLAGFORD', 220.0000,1,     0.000,     0.000,   9,   1,1.03470,  -9.6176,   1
 2541,'FRN ST A', 110.0000,1,     0.000,     0.000,   1,   2,1.06052,  -7.2321,   2
 2551,'FRN ST B', 110.0000,1,     0.000,     0.000,   1,   2,1.06493,  -8.0989,   2
 2561,'FIN_URBA', 110.0000,1,     0.000,     0.000,   2,   2,1.05826,  -8.8721,   1
 2562,'FINGLAS ', 220.0000,1,     0.000,     0.000,   2,   2,1.07160,  -3.9016,   1
 2571,'FIN_RURA', 110.0000,1,     0.000,     0.000,   2,   2,1.05902,  -8.9282,   1
 2681,'GILRA   ', 110.0000,1,     0.000,     0.000,   9,   3,1.05662, -14.5596,   2
 2701,'GLASMORE', 110.0000,1,     0.000,     0.000,   2,   2,1.03640, -10.3196,   2
 2711,'GLASMORE', 110.0000,1,     0.000,     0.000,   2,   2,1.05914,  -8.9312,   2
 2721,'GRIFFINR', 110.0000,1,     0.000,     0.000,   2,   2,1.05564,  -8.6215,   2
 2731,'GRIFFINR', 110.0000,1,     0.000,     0.000,   2,   1,1.05620,  -8.5973,   2
 2741,'GREAT IS', 110.0000,1,     0.000,     0.000,   6,   1,1.05965, -12.6130,   1
 2742,'GREAT IS', 220.0000,1,     0.000,     0.000,   6,   1,1.05500,  -8.9242,   1
 2761,'GRANGE  ', 110.0000,1,     0.000,     0.000,   1,   2,1.05706,  -9.1253,   2
 2781,'GALWAY  ', 110.0000,1,     0.000,     0.000,   9,   1,1.04862, -13.5795,   1
 2801,'GOLAGH  ', 110.0000,1,     0.000,     0.000,   9,   1,1.04570, -19.7189,   1
 2821,'GORTAWEE', 110.0000,1,     0.000,     0.000,   9,   1,1.03014, -16.9873,   1
 2861,'GRANGE C', 110.0000,1,     0.000,     0.000,   1,   1,1.06202,  -8.3471,   2
 2881,'GLENLARA', 110.0000,1,     0.000,     0.000,   3,   1,1.01093, -14.0284,   2
 2921,'HAULBOWL', 110.0000,1,     0.000,     0.000,   3,   3,1.06659, -12.0331,   5
 2931,'HAULBOWL', 110.0000,1,     0.000,     0.000,   3,   3,1.06553, -12.0947,   5
 2941,'HAROLDS ', 110.0000,1,     0.000,     0.000,   1,   2,1.06162,  -7.1545,   2
 2962,'HUNTSTOW', 220.0000,1,     0.000,     0.000,   2,   1,1.07210,  -3.8006,   1
 3061,'INISCARR', 110.0000,1,     0.000,     0.000,   3,   1,1.06000, -11.8669,   1
 3081,'INCHICOR', 110.0000,1,     0.000,     0.000,   1,   2,1.06745,  -7.9275,   2
 3082,'INCHICOR', 220.0000,1,     0.000,     0.000,   2,   2,1.07276,  -4.0536,   1
 3101,'IKERRIN ', 110.0000,1,     0.000,     0.000,   5,   1,1.02962, -16.7985,   2
 3122,'IRISHTOW', 220.0000,1,     0.000,     0.000,   2,   1,1.07444,  -3.2760,   1
 3201,'KNOCKRAH', 110.0000,1,     0.000,     0.000,   3,   1,1.06577, -11.7095,   1
 3202,'KNOCKRAH', 220.0000,1,     0.000,     0.000,   3,   1,1.06447,  -9.0131,   1
 3221,'KILBARRY', 110.0000,1,     0.000,     0.000,   3,   1,1.05692, -12.3590,   1
 3241,'KILTEEL ', 110.0000,1,     0.000,     0.000,   8,   1,1.02705, -10.4174,   2
 3261,'KILKENNY', 110.0000,1,     0.000,     0.000,   8,   1,1.01455, -13.3742,   1
 3281,'KILLONAN', 110.0000,1,     0.000,     0.000,   7,   1,1.03890, -11.7168,   1
 3282,'KILLONAN', 220.0000,1,     0.000,     0.000,   7,   1,1.04456,  -7.4767,   1
 3301,'KNOCKERA', 110.0000,1,     0.000,     0.000,   7,   1,1.03453, -10.6277,   1
 3321,'KNOCKUMB', 110.0000,1,     0.000,     0.000,  10,   3,0.97355, -14.6590,   5
 3341,'KELLIS  ', 110.0000,1,     0.000,     0.000,   8,   1,1.05537, -10.4186,   1
 3342,'KELLIS  ', 220.0000,1,     0.000,     0.000,   8,   1,1.04957,  -7.3857,   1
 3361,'KILTOY  ', 110.0000,1,     0.000,     0.000,   9,   3,1.03827, -22.0370,   5
 3371,'KILTOY  ', 110.0000,1,     0.000,     0.000,   9,   3,1.03818, -22.0421,   5
 3381,'KINNEGAD', 110.0000,1,     0.000,     0.000,   2,   1,1.03608, -10.1964,   1
 3401,'KILLOTER', 110.0000,1,     0.000,     0.000,   5,   1,1.05157, -13.3584,   1
 3421,'KILMORE ', 110.0000,1,     0.000,     0.000,   1,   1,1.05787,  -9.0563,   2
 3501,'LANESBOR', 110.0000,1,     0.000,     0.000,   9,   1,1.06500, -13.5638,   1
 3521,'LOUTH   ', 110.0000,1,     0.000,     0.000,  10,   1,1.05401,  -9.8297,   1
 3522,'LOUTH   ', 220.0000,2,     0.000,     0.000,  10,   1,1.04321,  -6.4278,   1
 3541,'LIMERICK', 110.0000,1,     0.000,     0.000,   7,   1,1.02617, -11.8127,   1
 3561,'LISDRUM ', 110.0000,1,     0.000,     0.000,  10,   1,1.01479, -12.9201,   1
 3581,'LETTERKE', 110.0000,1,     0.000,     0.000,   9,   1,1.03937, -21.9686,   1
 3601,'LIBERTY ', 110.0000,1,     0.000,     0.000,   3,   1,1.05973, -12.2677,   2
 3611,'LIBERTY ', 110.0000,1,     0.000,     0.000,   3,   1,1.05998, -12.2597,   2
 3621,'LISHEEN ', 110.0000,1,     0.000,     0.000,   5,   1,1.02804, -18.1307,   1
 3761,'MACETOWN', 110.0000,1,     0.000,     0.000,   2,   2,1.05219,  -9.2647,   1
 3781,'MCDERMOT', 110.0000,1,     0.000,     0.000,   1,   2,1.05541,  -9.0878,   2
 3801,'MIDLETON', 110.0000,1,     0.000,     0.000,   3,   1,1.06024, -11.7643,   1
 3821,'MEATH HI', 110.0000,1,     0.000,     0.000,  10,   1,1.04218, -10.3880,   2
 3841,'MAYNOOTH', 110.0000,1,     0.000,     0.000,   2,   2,1.05751,  -8.4558,   1
 3842,'MAYNOOTH', 220.0000,1,     0.000,     0.000,   2,   2,1.06775,  -4.5622,   1
 3861,'MILLTOWN', 110.0000,1,     0.000,     0.000,   1,   2,1.06411,  -6.9555,   2
 3871,'MILLTOWN', 110.0000,1,     0.000,     0.000,   1,   2,1.06335,  -8.4163,   2
 3881,'MACROOM ', 110.0000,1,     0.000,     0.000,   3,   1,1.05685, -11.7739,   1
 3901,'MONETEEN', 110.0000,1,     0.000,     0.000,   7,   1,1.02406, -11.4999,   1
 3941,'MONEYPOI', 110.0000,1,     0.000,     0.000,   7,   1,1.01234, -13.4266,   1
 3942,'MONEYPOI', 220.0000,1,     0.000,     0.000,   7,   1,1.07105,   0.4455,   1
 3944,'MNYPG1G3', 380.0000,1,     0.000,     6.000,   2,   1,1.07500,   4.6597,   1
 3954,'MNYPG2  ', 380.0000,1,     0.000,     6.000,   7,   1,1.07500,   5.1740,   1
 3961,'MARINA  ', 110.0000,1,     0.000,     0.000,   3,   1,1.06000, -12.2559,   1
 3981,'MUNGRET ', 110.0000,1,     0.000,     0.000,   7,   3,1.02387, -11.5113,   5
 3991,'MUNGRET ', 110.0000,1,     0.000,     0.000,   7,   3,1.02387, -11.5108,   5
 4001,'MULLINGA', 110.0000,1,     0.000,     0.000,   9,   1,1.02500, -13.7440,   1
 4021,'MALLOW  ', 110.0000,1,     0.000,     0.000,   3,   1,1.03102, -13.3730,   1
 4041,'MOY     ', 110.0000,1,     0.000,     0.000,   9,   1,1.04200, -21.5311,   1
 4061,'MULLAGHA', 110.0000,1,     0.000,     0.000,  10,   1,1.04051, -10.5118,   2
 4071,'MEENTYCA', 110.0000,2,     0.000,     0.000,   9,   1,1.04290, -21.2760,   1
 4081,'MONREAD ', 110.0000,1,     0.000,     0.000,   8,   1,1.01844, -11.0658,   1
 4201,'NEWBRIDG', 110.0000,1,     0.000,     0.000,   8,   1,1.01036, -11.7209,   1
 4221,'NAVAN   ', 110.0000,1,     0.000,     0.000,  10,   1,0.97730, -14.4231,   1
 4242,'NORTH WA', 220.0000,1,     0.000,     0.000,   2,   2,1.07485,  -3.8655,   1
 4281,'NANGOR  ', 110.0000,1,     0.000,     0.000,   1,   1,1.06178,  -8.3637,   1
 4341,'OLDCOURT', 110.0000,1,     0.000,     0.000,   3,   3,1.06436, -11.9024,   5
 4351,'OLDCOURT', 110.0000,1,     0.000,     0.000,   3,   3,1.06436, -11.9024,   5
 4361,'OUGHTRAG', 110.0000,1,     0.000,     0.000,   7,   1,1.03077,  -9.8912,   2
 4382,'OLDSTREE', 220.0000,1,     0.000,     0.000,   9,   1,1.06423,  -2.5041,   1
 4384,'OLDSTREE', 380.0000,1,     0.000,     0.000,   9,   1,1.05349,   0.5659,   1
 4441,'POLLAPHU', 110.0000,1,     0.000,     0.000,   8,   1,1.07000,  -9.2316,   1
 4451,'POOLBEG ', 110.0000,1,     0.000,     0.000,   1,   1,1.06514,  -6.8831,   2
 4461,'POOLBEG ', 110.0000,1,     0.000,     0.000,   1,   1,1.06559,  -6.7860,   2
 4462,'POOLBEG ', 220.0000,1,     0.000,     0.000,   2,   2,1.07500,  -3.9164,   1
 4471,'POOLBEG ', 110.0000,1,     0.000,     0.000,   1,   1,1.06558,  -6.7890,   2
 4481,'PORTLAOI', 110.0000,1,     0.000,     0.000,   8,   1,1.03721, -10.4500,   1
 4501,'PLATIN  ', 110.0000,1,     0.000,     0.000,  10,   3,0.99936, -12.6780,   1
 4522,'PROSPECT', 220.0000,1,     0.000,     0.000,   7,   1,1.07301,  -0.7758,   1
 4621,'RYEBROOK', 110.0000,1,     0.000,     0.000,   2,   3,1.04608,  -9.4138,   1
 4651,'RINGSEND', 110.0000,1,     0.000,     0.000,   1,   2,1.06513,  -6.8829,   2
 4681,'RATHKEAL', 110.0000,1,     0.000,     0.000,   7,   1,1.03138,  -9.0844,   1
 4701,'RICHMOND', 110.0000,1,     0.000,     0.000,   9,   1,1.05212, -14.1629,   2
 4721,'RAFFEEN ', 110.0000,1,     0.000,     0.000,   3,   1,1.06656, -12.0327,   1
 4722,'RAFFEEN ', 220.0000,1,     0.000,     0.000,   3,   1,1.06346, -10.2474,   1
 4741,'RINAWADE', 110.0000,1,     0.000,     0.000,   2,   3,1.05195,  -8.8432,   1
 4761,'RINGASKI', 110.0000,1,     0.000,     0.000,   3,   1,1.06627, -12.0489,   2
 4901,'SHELTON ', 110.0000,1,     0.000,     0.000,   6,   3,1.05727,  -9.0269,   5
 4911,'SHELTON ', 110.0000,1,     0.000,     0.000,   6,   3,1.05727,  -9.0270,   5
 4941,'SHANNONB', 110.0000,1,     0.000,     0.000,   5,   1,1.05988, -12.3966,   1
 4942,'SHANNONB', 220.0000,1,     0.000,     0.000,   5,   1,1.04614,  -8.7378,   1
 4961,'SHANKILL', 110.0000,1,     0.000,     0.000,  10,   1,1.00330, -14.3729,   1
 4981,'SLIGO   ', 110.0000,1,     0.000,     0.000,   9,   1,1.02678, -19.2398,   1
 5001,'SOMERSET', 110.0000,1,     0.000,     0.000,   9,   1,1.05140, -12.8051,   2
 5022,'SHELLYBA', 220.0000,1,     0.000,     0.000,   2,   2,1.07466,  -3.2315,   1
 5061,'STRATFOR', 110.0000,1,     0.000,     0.000,   8,   1,1.05259, -10.2868,   2
 5071,'SHANEMOR', 110.0000,1,     0.000,     0.000,   9,   1,1.04201, -12.4009,   1
 5141,'TARBERT ', 110.0000,1,     0.000,     0.000,   7,   1,1.05863,  -4.5058,   1
 5142,'TARBERT ', 220.0000,1,     0.000,     0.000,   7,   1,1.07500,  -1.2870,   1
 5181,'TRABEG  ', 110.0000,1,     0.000,     0.000,   3,   1,1.06007, -12.2876,   1
 5202,'TURLOUGH', 220.0000,1,     0.000,     0.000,   2,   1,1.08300,  -3.0657,   1
 5221,'TULLABRA', 110.0000,1,     0.000,     0.000,   7,   1,1.01172, -13.4498,   2
 5241,'TAWN_A  ', 110.0000,1,     0.000,     0.000,   9,   3,1.04204, -21.5321,   2
 5251,'TAWN_B  ', 110.0000,1,     0.000,     0.000,   9,   3,1.04204, -21.5321,   2
 5261,'TRIEN   ', 110.0000,1,     0.000,     0.000,   7,   1,1.06144,  -6.9205,   1
 5281,'TRALEE  ', 110.0000,1,     0.000,     0.000,   7,   1,1.04751,  -8.5000,   1
 5301,'THURLES ', 110.0000,1,     0.000,     0.000,   5,   1,1.03206, -17.8822,   1
 5321,'THORNSBE', 110.0000,1,     0.000,     0.000,   2,   1,1.01495, -11.1937,   2
 5341,'TONROE  ', 110.0000,1,     0.000,     0.000,   9,   1,1.04446, -14.7627,   2
 5361,'TRILLICK', 110.0000,1,     0.000,     0.000,   9,   1,1.02838, -22.4441,   2
 5381,'TIPPERAR', 110.0000,1,     0.000,     0.000,   5,   1,1.03966, -15.0626,   1
 5441,'WATERFOR', 110.0000,1,     0.000,     0.000,   5,   1,1.05309, -13.2184,   1
 5462,'WOODLAND', 220.0000,1,     0.000,     0.000,   2,   1,1.07149,  -3.9445,   1
 5464,'WOODLAND', 380.0000,1,     0.000,     0.000,   2,   1,1.02254,  -1.5771,   1
 5481,'WHITEGAT', 110.0000,1,     0.000,     0.000,   3,   3,1.06508, -11.0502,   1
 5501,'WEXFORD ', 110.0000,1,     0.000,     0.000,   6,   1,1.04437, -13.7342,   1
 5521,'WOLFE TO', 110.0000,1,     0.000,     0.000,   1,   1,1.05520,  -9.1051,   2
10204,'ARDNACRU',  38.0000,2,     0.000,     0.000,   7,   1,1.04670, -16.6035,   2
10205,'ARDNACRU',  38.0000,1,     0.000,     0.000,   7,   1,1.06152, -20.2885,   2
10271,'ARDNG1  ',  10.5000,2,     0.000,     0.000,   7,   1,0.99998,  -7.8027,   3
10272,'ARDNG2  ',  10.5000,2,     0.000,     0.000,   7,   1,1.00450,  -7.2637,   3
10273,'ARDNG3  ',  10.5000,2,     0.000,     0.000,   7,   1,0.99868,  -8.0165,   3
10274,'ARDNG4  ',  10.5000,2,     0.000,     0.000,   7,   1,1.00029,  -7.7626,   3
10421,'AGHADA  ',  10.5000,1,     0.000,     0.000,   3,   1,1.05775,  -8.7146,   1
10471,'AGH_G1  ',  20.0000,2,     0.000,     0.000,   3,   1,1.00966,  -1.7189,   3
10472,'AGH_G11 ',  10.5000,2,     0.000,     0.000,   3,   1,1.00000,  -8.0167,   3
10473,'AGH_G12 ',  10.5000,2,     0.000,     0.000,   3,   1,1.00000,  -8.0167,   3
10474,'AGH_G14 ',  10.5000,2,     0.000,     0.000,   3,   1,1.00000,  -8.0167,   3
10476,'AGH_EMER',  10.5000,2,     0.000,     0.000,   3,   1,1.06602, -10.7877,   3
10602,'ARIGNA  ',  20.0000,2,     0.000,     0.000,   9,   1,1.05267, -14.7337,   2
10619,'ARIGNA_T', 110.0000,1,     0.000,     0.000,   9,   1,1.05032, -15.4685,   1
10801,'AHANE   ',  11.0000,1,     0.000,     0.000,   7,   1,1.05066, -12.8669,   2
11204,'ARKLOW  ',  38.0000,2,     0.000,     0.000,   6,   1,1.05289, -11.3422,   2
11221,'ARKL    ',  10.5000,1,     0.000,     0.000,   6,   1,1.05912,  -7.2182,   1
11222,'ARKL    ',  10.5000,1,     0.000,     0.000,   6,   1,1.07120,  -7.2148,   1
11404,'ATHLONE ',  38.0000,1,     0.000,     0.000,   9,   1,1.03479, -19.4829,   2
11461,'ATHLONE_', 110.0000,1,     0.000,     0.000,   8,   1,1.07248, -14.5202,   1
12001,'ARTANE  ',  10.0000,1,     0.000,     0.000,   1,   1,1.04874, -10.5953,   2
12804,'BALLYLIC',  38.0000,2,     0.000,     0.000,   3,   1,1.03037, -15.5959,   1
13001,'BALLYBEG',  10.0000,1,     0.000,     0.000,   6,   1,1.03551, -10.8578,   2
13204,'BLAKE   ',  38.0000,1,     0.000,     0.000,   8,   1,1.04925, -11.9341,   2
13219,'BLAKE T ', 110.0000,1,     0.000,     0.000,   8,   1,1.05961,  -7.2926,   1
13404,'BINBANE ',  38.0000,2,     0.000,     0.000,   9,   1,1.04288, -24.8055,   2
13601,'BALLYDIN',  10.0000,1,     0.000,     0.000,   5,   1,1.05544, -16.9070,   2
13604,'BALLYDIN',  38.0000,1,     0.000,     0.000,   5,   1,1.04358, -16.1074,   2
13802,'BARNAHEL',  20.0000,1,     0.000,     0.000,   3,   1,1.04046, -15.8655,   2
13804,'BARNAHEL',  38.0000,1,     0.000,     0.000,   3,   1,1.05024, -14.5693,   2
14002,'BELLACOR',  20.0000,2,     0.000,     0.000,   9,   1,1.05132, -22.1077,   2
14061,'BELL_CAP', 110.0000,1,     0.000,     0.000,   9,   1,1.05286, -20.9677,   1
14204,'BLACKROC',  38.0000,1,     0.000,     0.000,   2,   1,1.05279, -12.9313,   2
14401,'BANDON  ',  10.0000,1,     0.000,     0.000,   3,   1,1.03861, -16.0421,   1
14404,'BANDON  ',  38.0000,2,     0.000,     0.000,   3,   1,1.05483, -16.7152,   2
14461,'BAN_CAP ', 110.0000,1,     0.000,     0.000,   3,   1,1.05309, -13.5235,   1
14604,'BARRYMOR',  38.0000,2,     0.000,     0.000,   5,   1,1.05481, -18.5745,   2
14619,'BARRYM T', 110.0000,1,     0.000,     0.000,   5,   1,1.05493, -13.5954,   1
14804,'BUTLERST',  38.0000,1,     0.000,     0.000,   5,   1,1.04504, -18.1719,   2
15001,'BRINNY  ',  10.0000,1,     0.000,     0.000,   3,   1,1.04588, -14.6691,   5
15801,'CABRA   ',  10.0000,1,     0.000,     0.000,   1,   1,1.03923, -11.6444,   2
16021,'CLASH   ',  10.5000,1,     0.000,     0.000,   3,   1,1.06339,  -8.1751,   1
16202,'COOLROE ',  20.0000,1,     0.000,     0.000,   3,   1,1.05201, -13.0541,   2
16421,'CASH    ',  10.5000,1,     0.000,     0.000,   9,   1,1.05628,  -8.0548,   1
16422,'CASH2   ',  10.5000,1,     0.000,     0.000,   9,   1,1.05628,  -8.0548,   1
16461,'CASH_CAP', 110.0000,1,     0.000,     0.000,   9,   1,1.06492, -12.3982,   1
16604,'CASTLEBA',  38.0000,2,     0.000,     0.000,   9,   1,1.05459, -24.8438,   2
16661,'CBAR_CAP', 110.0000,1,     0.000,     0.000,   9,   1,1.07079, -20.1117,   1
16662,'CBAR_SVC', 110.0000,1,     0.000,     0.000,   9,   1,1.07460, -20.1117,   1
16873,'CDRDG3  ',  10.5000,2,     0.000,     0.000,   3,   1,1.01541,  -8.2665,   3
17004,'CATH_FAL',  38.0000,2,     0.000,     0.000,   9,   1,1.05758, -21.0982,   2
17061,'CATH_CAP', 110.0000,1,     0.000,     0.000,   9,   1,1.05016, -18.5776,   1
17073,'CATHG3  ',  10.5000,2,     0.000,     0.000,   9,   1,0.99751, -14.2507,   3
17074,'CATHG4  ',  10.5000,2,     0.000,     0.000,   9,   1,0.99759, -14.2232,   3
17204,'CAHIR   ',  38.0000,1,     0.000,     0.000,   5,   1,1.03664, -18.7395,   2
17261,'CAHR_CAP', 110.0000,1,     0.000,     0.000,   5,   1,1.05321, -16.4952,   1
17404,'CARRICKM',  38.0000,1,     0.000,     0.000,   2,   1,1.04403, -15.3314,   2
17421,'CMIN1   ',  10.5000,1,     0.000,     0.000,   2,   1,1.06680,  -4.6670,   2
17422,'CMIN2   ',  10.5000,1,     0.000,     0.000,   2,   1,1.06680,  -4.6670,   2
17431,'CKMN_PST', 220.0000,1,     0.000,     0.000,   2,   1,1.07451,  -4.2780,   1
17462,'CKM_SR  ', 220.0000,1,     0.000,     0.000,   2,   1,1.07186,  -3.7435,   1
17671,'CLIFG1  ',  10.5000,2,     0.000,     0.000,   9,   1,1.02171, -14.5338,   3
17672,'CLIFG2  ',  10.5000,2,     0.000,     0.000,   9,   1,1.02061, -14.6749,   3
17802,'CASTLEFA',  20.0000,1,     0.000,     0.000,   7,   1,1.03249, -15.0752,   1
18004,'COOKSTOW',  38.0000,1,     0.000,     0.000,   1,   1,1.05923, -15.7076,   2
18019,'COOKST T', 110.0000,1,     0.000,     0.000,   1,   2,1.05927,  -8.4271,   2
18204,'CLOON   ',  38.0000,1,     0.000,     0.000,   9,   1,1.05133, -18.9177,   2
18402,'CRANE   ',  20.0000,1,     0.000,     0.000,   6,   1,1.04585, -13.7989,   2
18404,'CRANE   ',  38.0000,2,     0.000,     0.000,   6,   1,1.03082, -17.6219,   2
18604,'CARRICK ',  38.0000,1,     0.000,     0.000,   9,   1,1.03760, -18.1594,   2
18701,'COLLEGE ',  10.0000,1,     0.000,     0.000,   2,   1,1.05627,  -9.1773,   1
18804,'CHARLEVI',  38.0000,1,     0.000,     0.000,   3,   1,1.03790, -17.7752,   2
19004,'CARLOW  ',  38.0000,2,     0.000,     0.000,   8,   1,1.04100, -15.2507,   2
19204,'COW_CROS',  38.0000,1,     0.000,     0.000,   3,   1,1.05241, -15.8274,   2
19302,'CUNGHILL',  20.0000,1,     0.000,     0.000,   9,   1,1.00935, -18.1005,   4
19402,'CUNGHILL',  20.0000,2,     0.000,     0.000,   9,   1,1.00000, -15.8352,   1
19471,'EDENDERR',  11.0000,2,     0.000,     0.000,   8,   1,1.00915,   1.3656,   4
19601,'CASTLEVI',  10.0000,1,     0.000,     0.000,   3,   1,1.05295, -13.5968,   2
20021,'CULLENAG',  10.5000,1,     0.000,     0.000,   5,   1,1.06859, -10.5902,   1
20201,'CITY WES',  10.0000,1,     0.000,     0.000,   1,   1,1.05391,  -9.3819,   2
21004,'DUNDALK ',  38.0000,1,     0.000,     0.000,  10,   1,1.05620, -16.7075,   2
21204,'DRUMLINE',  38.0000,1,     0.000,     0.000,   7,   1,1.04201, -16.9840,   2
21404,'DUNGARVA',  38.0000,1,     0.000,     0.000,   5,   1,1.02749, -16.8955,   2
21604,'DOON    ',  38.0000,1,     0.000,     0.000,   5,   1,1.03497, -23.1294,   2
21661,'DOON_CAP', 110.0000,1,     0.000,     0.000,   5,   1,1.04719, -16.3580,   1
21804,'DRYBRIDG',  38.0000,1,     0.000,     0.000,  10,   1,1.03677, -19.1668,   2
22021,'DUNS    ',  17.5000,1,     0.000,     0.000,   2,   1,1.08245,  -1.1802,   1
22204,'DUNMANWA',  38.0000,2,     0.000,     0.000,   3,   1,1.05033, -15.7407,   2
22261,'DUNM_CAP', 110.0000,1,     0.000,     0.000,   3,   1,1.04883, -13.4345,   1
22404,'DALLOW  ',  38.0000,1,     0.000,     0.000,   5,   1,1.05039, -15.1322,   2
22419,'DALLOW T', 110.0000,1,     0.000,     0.000,   5,   1,1.05370, -12.1887,   1
22804,'DALTON  ',  38.0000,1,     0.000,     0.000,   9,   1,1.03973, -22.2434,   2
22861,'DALT_CAP', 110.0000,1,     0.000,     0.000,   9,   1,1.06364, -18.6143,   1
23001,'DUNFIRTH',  10.0000,1,     0.000,     0.000,   2,   1,1.04960, -11.9811,   2
23019,'DUNFIR_T', 110.0000,1,     0.000,     0.000,   2,   1,1.04276,  -9.6427,   1
23604,'ENNIS   ',  38.0000,1,     0.000,     0.000,   7,   1,1.04074, -19.3844,   2
24804,'FASSAROE',  38.0000,1,     0.000,     0.000,   2,   1,1.04123, -13.3572,   2
25221,'FLAG1   ',  10.5000,1,     0.000,     0.000,   9,   1,1.06573, -10.7584,   1
25222,'FLAG2   ',  10.5000,1,     0.000,     0.000,   9,   1,1.06567, -10.7796,   1
25404,'FRANCIS ',  38.0000,1,     0.000,     0.000,   1,   1,1.03177, -13.9303,   2
25604,'FINGLAS ',  38.0000,1,     0.000,     0.000,   2,   1,1.05916, -16.3045,   1
25621,'FING1   ',  10.5000,1,     0.000,     0.000,   2,   1,1.07922,  -5.1253,   1
25622,'FING2   ',  10.5000,1,     0.000,     0.000,   2,   1,1.07922,  -5.1253,   1
25623,'FING3   ',  10.5000,1,     0.000,     0.000,   2,   1,1.08268,  -5.1378,   1
25624,'FING4   ',  10.5000,1,     0.000,     0.000,   2,   1,1.08268,  -5.1378,   1
26802,'GILRA   ',  20.0000,1,     0.000,     0.000,   9,   1,1.05921, -16.7691,   5
27004,'GLASMORE',  38.0000,1,     0.000,     0.000,   2,   1,1.05725, -15.9816,   2
27204,'GRIFFINR',  38.0000,2,     0.000,     0.000,   2,   1,1.04883, -14.6709,   2
27219,'GRFRAT T', 110.0000,1,     0.000,     0.000,   2,   1,1.05637,  -8.5674,   2
27404,'GREAT IS',  38.0000,1,     0.000,     0.000,   6,   1,1.04665, -16.7954,   2
27421,'GISL    ',  10.5000,1,     0.000,     0.000,   6,   1,1.08249,  -9.8209,   1
27422,'GISL    ',  10.5000,1,     0.000,     0.000,   6,   1,1.08259,  -9.8141,   1
27471,'GISLG1  ',  10.5000,2,     0.000,     0.000,   6,   1,1.00851, -12.6130,   3
27472,'GISLG2  ',  10.5000,2,     0.000,     0.000,   6,   1,1.00851, -12.6130,   3
27473,'GISLG3  ',  13.8000,2,     0.000,     0.000,   6,   1,1.01031,  -3.5938,   3
27604,'GRANGE  ',  38.0000,1,     0.000,     0.000,   1,   1,1.04744, -13.6363,   2
27802,'GALWAY  ',  20.0000,1,     0.000,     0.000,   9,   1,1.04415, -16.7738,   2
27804,'GALWAY  ',  38.0000,2,     0.000,     0.000,   9,   1,1.05654, -20.9286,   2
28002,'GOLAGH  ',  22.0000,2,     0.000,     0.000,   9,   1,1.00058, -17.8723,   1
28019,'GOLAGH T', 110.0000,1,     0.000,     0.000,   9,   1,1.04570, -19.7641,   1
28261,'GWE_CAP ', 110.0000,1,     0.000,     0.000,   9,   1,1.03014, -16.9873,   1
28604,'GRANGE C',  38.0000,1,     0.000,     0.000,   1,   1,1.05470, -10.7491,   2
28804,'GLENLARA',  38.0000,1,     0.000,     0.000,   3,   1,1.03710, -16.6512,   1
29401,'HAROLDS_',  10.0000,1,     0.000,     0.000,   1,   1,1.05545,  -9.2793,   2
29671,'HUNT_CT ',  16.0000,2,     0.000,     0.000,   2,   2,1.01832,   3.8909,   4
29672,'HUNT_ST ',  10.5000,2,     0.000,     0.000,   2,   2,1.01871,   3.8340,   4
30671,'INISG1  ',  10.5000,2,     0.000,     0.000,   3,   1,1.01240,  -7.9504,   3
30804,'INCHICOR',  38.0000,1,     0.000,     0.000,   1,   1,1.04845, -14.8428,   2
30821,'INCH1   ',  10.5000,1,     0.000,     0.000,   1,   1,1.08583,  -5.0115,   2
30822,'INCH2   ',  10.5000,1,     0.000,     0.000,   1,   1,1.08583,  -5.0115,   2
30823,'INCH3   ',  10.5000,1,     0.000,     0.000,   1,   1,1.08615,  -5.0113,   2
31004,'IKERRIN ',  38.0000,2,     0.000,     0.000,   5,   1,1.05045, -21.6683,   2
31019,'IKERIN T', 110.0000,1,     0.000,     0.000,   5,   1,1.02968, -16.7900,   1
31271,'DUBLIN B',  21.0000,2,     0.000,     0.000,   2,   2,1.01278,   4.4943,   4
32021,'KRAH    ',  10.5000,1,     0.000,     0.000,   3,   1,1.07498,  -9.6812,   1
32022,'KRAH    ',  10.5000,1,     0.000,     0.000,   3,   1,1.07532,  -9.6810,   1
32201,'KILBARRY',  10.0000,1,     0.000,     0.000,   3,   1,1.03189, -16.1364,   1
32204,'KILBARRY',  38.0000,1,     0.000,     0.000,   3,   1,1.03472, -20.6175,   2