<!DOCTYPE HTML PUBLIC "-//W3C//DTD HTML 4.0 Transitional//EN">
<!-- saved from url=(0069)http://www.eirgrid.com/EirgridPortal/uploads/Publications/w07_web.raw -->
<HTML><HEAD>
<META http-equiv=Content-Type content="text/html; charset=windows-1252">
<META content="MSHTML 6.00.2900.3492" name=GENERATOR></HEAD>
<BODY><PRE>0,   100.00          / PSS/E-29.4    THU, JUL 22 2004  14:55
ESB NATIONAL GRID FORECAST STATEMENT 2004-2010
BASECASE WINTER 2007/2008
   10,'F_M_____',  38.0000,1,     0.000,     0.000,   1,   1,1.04283, -16.6714,   2
   11,'FMN_LOOP',  38.0000,1,     0.000,     0.000,   1,   1,1.05046, -12.2022,   2
   12,'BEDFORD ',  38.0000,1,     0.000,     0.000,   1,   1,1.03961, -14.9418,   2
   13,'M_R_____',  38.0000,1,     0.000,     0.000,   1,   1,1.03949, -14.2207,   2
   14,'F_I_____',  38.0000,1,     0.000,     0.000,   1,   1,1.03958, -15.2023,   2
   15,'I_M_____',  38.0000,1,     0.000,     0.000,   1,   1,1.05161, -14.7946,   2
   41,'TANEY   ', 110.0000,1,     0.000,     0.000,   1,   1,1.05565,  -8.8401,   1
   51,'MISERY H', 110.0000,1,     0.000,     0.000,   1,   1,1.06395,  -7.2461,   1
   52,'MISERY H',  38.0000,1,     0.000,     0.000,   1,   1,1.06395,  -7.2461,   1
 1021,'ARDNACRU', 110.0000,1,     0.000,     0.000,   7,   1,1.03600,  -7.6229,   1
 1041,'AGHADA  ', 110.0000,1,     0.000,     0.000,   3,   1,1.06410,  -8.8411,   1
 1042,'AGHADA  ', 220.0000,1,     0.000,     0.000,   3,   1,1.07500,  -6.3943,   1
 1061,'ARIGNA  ', 110.0000,1,     0.000,     0.000,   9,   1,1.04722, -10.5298,   2
 1081,'AHANE   ', 110.0000,1,     0.000,     0.000,   7,   1,1.04279,  -7.6868,   2
 1101,'ANNER   ', 110.0000,1,     0.000,     0.000,   5,   3,1.03648, -14.4069,   5
 1121,'ARKLOW  ', 110.0000,1,     0.000,     0.000,   6,   1,1.06525,  -8.0450,   1
 1122,'ARKLOW  ', 220.0000,1,     0.000,     0.000,   6,   1,1.06114,  -5.9598,   1
 1141,'ATHLONE ', 110.0000,1,     0.000,     0.000,   8,   1,1.06235,  -9.2151,   1
 1151,'ARKLOW B', 110.0000,2,     0.000,     0.000,   6,   1,1.06850,  -7.7866,   1
 1161,'AUGHINIS', 110.0000,1,     0.000,     0.000,   7,   3,1.07500,  -1.3363,   1
 1171,'SEALROCK', 110.0000,1,     0.000,     0.000,   7,   1,1.07581,  -1.2848,   1
 1181,'ARVA    ', 110.0000,1,     0.000,     0.000,  10,   1,1.03433, -11.5152,   1
 1191,'SEALROCK', 110.0000,1,     0.000,     0.000,   7,   1,1.07581,  -1.2848,   1
 1201,'ARTANE  ', 110.0000,1,     0.000,     0.000,   1,   1,1.05362,  -8.9288,   2
 1221,'ATHY    ', 110.0000,1,     0.000,     0.000,   8,   1,1.04278,  -9.3997,   1
 1231,'BALLYWAT', 110.0000,2,     0.000,     0.000,   6,   1,1.04247, -11.3899,   1
 1251,'BOOLTIAG', 110.0000,2,     0.000,     0.000,   7,   1,1.01350,  -8.1823,   1
 1281,'BALLYLIC', 110.0000,1,     0.000,     0.000,   3,   1,1.04656, -11.0894,   2
 1301,'BALLYBEG', 110.0000,1,     0.000,     0.000,   6,   1,1.06167,  -8.2172,   1
 1321,'BLAKE   ', 110.0000,1,     0.000,     0.000,   8,   1,1.03507,  -8.6843,   2
 1341,'BINBANE ', 110.0000,1,     0.000,     0.000,   9,   1,1.01744, -13.4688,   2
 1361,'BALLYDIN', 110.0000,1,     0.000,     0.000,   5,   1,1.03981, -13.6124,   1
 1381,'BARNAHEL', 110.0000,1,     0.000,     0.000,   3,   1,1.06562,  -9.8457,   1
 1401,'BELLACOR', 110.0000,1,     0.000,     0.000,   9,   1,1.04500, -13.9577,   1
 1421,'BLACKROC', 110.0000,1,     0.000,     0.000,   2,   2,1.06610,  -7.5652,   2
 1441,'BANDON  ', 110.0000,1,     0.000,     0.000,   3,   1,1.05074, -11.2872,   1
 1461,'BARRYMOR', 110.0000,1,     0.000,     0.000,   5,   1,1.04958, -11.5337,   2
 1481,'BUTLERST', 110.0000,1,     0.000,     0.000,   5,   1,1.04342, -12.3057,   1
 1501,'BRINNY  ', 110.0000,1,     0.000,     0.000,   3,   1,1.05060, -11.2956,   5
 1511,'BRINNY  ', 110.0000,1,     0.000,     0.000,   3,   1,1.05060, -11.2952,   5
 1541,'BANOGE  ', 110.0000,1,     0.000,     0.000,   6,   1,1.04801, -10.0741,   1
 1581,'CABRA   ', 110.0000,1,     0.000,     0.000,   1,   2,1.05296,  -8.9583,   2
 1601,'CLASHAVO', 110.0000,1,     0.000,     0.000,   3,   1,1.05594,  -8.3083,   1
 1602,'CLASHAVO', 220.0000,1,     0.000,     0.000,   3,   1,1.06383,  -4.7188,   1
 1621,'COOLROE ', 110.0000,1,     0.000,     0.000,   3,   1,1.05704,  -9.9207,   1
 1631,'CORDERRY', 110.0000,1,     0.000,     0.000,   9,   1,1.04582, -10.7623,   1
 1641,'CASHLA  ', 110.0000,1,     0.000,     0.000,   9,   1,1.05992,  -5.3618,   1
 1642,'CASHLA  ', 220.0000,1,     0.000,     0.000,   9,   1,1.05499,  -1.0030,   1
 1661,'CASTLEBA', 110.0000,1,     0.000,     0.000,   9,   1,1.05880, -13.1783,   1
 1681,'CARRIGAD', 110.0000,1,     0.000,     0.000,   3,   1,1.05700,  -9.4048,   1
 1701,'CATH_FAL', 110.0000,1,     0.000,     0.000,   9,   1,1.05000, -12.1206,   1
 1721,'CAHIR   ', 110.0000,1,     0.000,     0.000,   5,   1,1.04368, -14.0293,   1
 1741,'CARRICKM', 110.0000,1,     0.000,     0.000,   2,   2,1.06756,  -7.4328,   2
 1742,'CARRICKM', 220.0000,1,     0.000,     0.000,   2,   2,1.07136,  -3.4885,   1
 1761,'CLIFF   ', 110.0000,1,     0.000,     0.000,   9,   1,1.05212, -11.9486,   1
 1781,'CASTLEFA', 110.0000,1,     0.000,     0.000,   7,   3,1.07461,  -1.3544,   5
 1791,'CASTLEFA', 110.0000,1,     0.000,     0.000,   7,   3,1.07461,  -1.3544,   5
 1801,'COOKSTOW', 110.0000,1,     0.000,     0.000,   1,   2,1.05057,  -8.8762,   2
 1821,'CLOON   ', 110.0000,1,     0.000,     0.000,   9,   1,1.04919,  -8.3148,   2
 1841,'CRANE   ', 110.0000,1,     0.000,     0.000,   6,   1,1.03855, -11.8293,   1
 1861,'CARRICK ', 110.0000,1,     0.000,     0.000,   9,   1,1.05068, -10.2886,   1
 1871,'COLLEGE ', 110.0000,1,     0.000,     0.000,   2,   1,1.05816,  -7.1498,   1
 1881,'CHARLEVI', 110.0000,1,     0.000,     0.000,   3,   1,1.01872, -10.3525,   1
 1901,'CARLOW  ', 110.0000,1,     0.000,     0.000,   8,   1,1.05279,  -9.8535,   1
 1921,'COW CROS', 110.0000,1,     0.000,     0.000,   3,   1,1.06343,  -9.7605,   1
 1931,'CUNGHILL', 110.0000,1,     0.000,     0.000,   9,   1,1.03844, -12.3177,   4
 1941,'CUSHALIN', 110.0000,1,     0.000,     0.000,   8,   1,1.07500,  -5.0755,   1
 1961,'CASTLEVI', 110.0000,1,     0.000,     0.000,   3,   1,1.06219,  -9.7734,   1
 1981,'CORRACLA', 110.0000,1,     0.000,     0.000,   9,   1,1.04579, -12.4403,   1
 2001,'CULLENAG', 110.0000,1,     0.000,     0.000,   5,   1,1.05212, -11.7873,   1
 2002,'CULLENAG', 220.0000,1,     0.000,     0.000,   5,   1,1.04809,  -8.4849,   1
 2021,'CITY WES', 110.0000,1,     0.000,     0.000,   1,   1,1.05236,  -8.7854,   2
 2041,'CORDUFF ', 110.0000,1,     0.000,     0.000,   2,   1,1.05908,  -7.0724,   1
 2042,'CORDUFF ', 220.0000,1,     0.000,     0.000,   2,   1,1.07029,  -3.8183,   1
 2081,'DUNKETTL', 110.0000,1,     0.000,     0.000,   3,   1,1.06219,  -9.7734,   5
 2101,'DUNDALK ', 110.0000,1,     0.000,     0.000,  10,   1,1.03133, -10.7232,   1
 2121,'DRUMLINE', 110.0000,1,     0.000,     0.000,   7,   1,1.01647,  -8.4559,   1
 2141,'DUNGARVA', 110.0000,1,     0.000,     0.000,   5,   1,1.03787, -12.0986,   1
 2161,'DOON    ', 110.0000,1,     0.000,     0.000,   5,   1,1.03706, -14.3728,   1
 2181,'DRYBRIDG', 110.0000,1,     0.000,     0.000,  10,   1,1.03709, -10.0446,   1
 2202,'DUNSTOWN', 220.0000,1,     0.000,     0.000,   2,   1,1.07237,  -3.0734,   1
 2204,'DUNSTOWN', 380.0000,1,     0.000,     0.000,   2,   1,1.02171,   1.3154,   1
 2221,'DUNMANWA', 110.0000,1,     0.000,     0.000,   3,   1,1.04709, -11.0763,   1
 2231,'DERRYBRI', 110.0000,2,     0.000,     0.000,   9,   1,1.04496,  -6.3244,   1
 2241,'DALLOW  ', 110.0000,1,     0.000,     0.000,   5,   1,1.04544,  -7.3425,   2
 2261,'DERRYIRO', 110.0000,1,     0.000,     0.000,   2,   1,1.02591,  -9.9378,   1
 2281,'DALTON  ', 110.0000,1,     0.000,     0.000,   9,   1,1.05763, -11.3086,   1
 2301,'DUNFIRTH', 110.0000,1,     0.000,     0.000,   2,   1,1.03603,  -9.2012,   2
 2321,'DRUMKEEN', 110.0000,1,     0.000,     0.000,   9,   1,1.04550, -13.9559,   1
 2361,'ENNIS   ', 110.0000,1,     0.000,     0.000,   7,   1,1.01577,  -8.2201,   1
 2481,'FASS EAS', 110.0000,1,     0.000,     0.000,   2,   2,1.06023,  -7.7972,   2
 2491,'FASS WES', 110.0000,1,     0.000,     0.000,   2,   2,1.06000,  -7.7941,   2
 2521,'FLAGFORD', 110.0000,1,     0.000,     0.000,   9,   1,1.05367, -10.1254,   1
 2522,'FLAGFORD', 220.0000,1,     0.000,     0.000,   9,   1,1.02154,  -7.2017,   1
 2541,'FRN ST A', 110.0000,1,     0.000,     0.000,   1,   2,1.06234,  -7.3549,   2
 2551,'FRN ST B', 110.0000,1,     0.000,     0.000,   1,   2,1.05812,  -8.4494,   2
 2561,'FIN_URBA', 110.0000,1,     0.000,     0.000,   2,   2,1.05605,  -8.7303,   1
 2562,'FINGLAS ', 220.0000,1,     0.000,     0.000,   2,   2,1.07221,  -3.6815,   1
 2571,'FIN_RURA', 110.0000,1,     0.000,     0.000,   2,   2,1.05777,  -7.1867,   1
 2681,'GILRA   ', 110.0000,1,     0.000,     0.000,   9,   3,1.05487, -10.4272,   2
 2701,'GLASMORE', 110.0000,1,     0.000,     0.000,   2,   2,1.03892,  -9.8764,   2
 2721,'GRIFFINR', 110.0000,1,     0.000,     0.000,   2,   2,1.05085,  -8.0803,   2
 2731,'GRIFFINR', 110.0000,1,     0.000,     0.000,   2,   1,1.05147,  -8.0526,   2
 2741,'GREAT IS', 110.0000,1,     0.000,     0.000,   6,   1,1.05132, -11.7441,   1
 2742,'GREAT IS', 220.0000,1,     0.000,     0.000,   6,   1,1.05000,  -7.8825,   1
 2761,'GRANGE  ', 110.0000,1,     0.000,     0.000,   1,   2,1.05366,  -8.9477,   2
 2781,'GALWAY  ', 110.0000,1,     0.000,     0.000,   9,   1,1.04346,  -6.1003,   1
 2801,'GOLAGH  ', 110.0000,1,     0.000,     0.000,   9,   1,1.04685, -12.9013,   1
 2821,'GORTAWEE', 110.0000,1,     0.000,     0.000,   9,   1,1.04421, -12.4836,   1
 2841,'GORMAN  ', 110.0000,1,     0.000,     0.000,  10,   1,1.05385, -10.1898,   1
 2842,'GORMAN  ', 220.0000,1,     0.000,     0.000,  10,   1,1.02332,  -6.7782,   1
 2861,'GRANGE C', 110.0000,1,     0.000,     0.000,   1,   1,1.05537,  -8.6990,   2
 2881,'GLENLARA', 110.0000,1,     0.000,     0.000,   3,   1,1.00663, -11.0303,   2
 2921,'HAULBOWL', 110.0000,1,     0.000,     0.000,   3,   3,1.06684,  -9.7765,   5
 2931,'HAULBOWL', 110.0000,1,     0.000,     0.000,   3,   3,1.06564,  -9.8460,   5
 2941,'HAROLDS ', 110.0000,1,     0.000,     0.000,   1,   2,1.06296,  -7.3112,   2
 2962,'HUNTSTOW', 220.0000,1,     0.000,     0.000,   2,   1,1.07288,  -3.5822,   1
 2981,'HARNETTS', 110.0000,1,     0.000,     0.000,   3,   1,1.05593,  -9.4695,   2
 3061,'INISCARR', 110.0000,1,     0.000,     0.000,   3,   1,1.06000,  -9.6489,   1
 3081,'INCHICOR', 110.0000,1,     0.000,     0.000,   1,   2,1.06112,  -8.2561,   2
 3082,'INCHICOR', 220.0000,1,     0.000,     0.000,   2,   2,1.07203,  -3.8772,   1
 3101,'IKERRIN ', 110.0000,1,     0.000,     0.000,   5,   1,1.01631, -12.7467,   2
 3122,'IRISHTOW', 220.0000,1,     0.000,     0.000,   2,   1,1.07493,  -3.0637,   1
 3201,'KNOCKRAH', 110.0000,1,     0.000,     0.000,   3,   1,1.06366,  -9.6421,   1
 3202,'KNOCKRAH', 220.0000,1,     0.000,     0.000,   3,   1,1.06500,  -6.8784,   1
 3221,'KILBARRY', 110.0000,1,     0.000,     0.000,   3,   1,1.05451, -10.2354,   1
 3241,'KILTEEL ', 110.0000,1,     0.000,     0.000,   8,   1,1.03508,  -8.7406,   2
 3261,'KILKENNY', 110.0000,1,     0.000,     0.000,   8,   1,1.00194, -13.0241,   1
 3281,'KILLONAN', 110.0000,1,     0.000,     0.000,   7,   1,1.04325,  -7.6507,   1
 3282,'KILLONAN', 220.0000,1,     0.000,     0.000,   7,   1,1.05247,  -4.0930,   1
 3301,'KNOCKERA', 110.0000,1,     0.000,     0.000,   7,   1,1.03177,  -7.1880,   1
 3321,'KNOCKUMB', 110.0000,1,     0.000,     0.000,  10,   3,1.04539, -10.6519,   5
 3341,'KELLIS  ', 110.0000,1,     0.000,     0.000,   8,   1,1.05775,  -9.7477,   1
 3342,'KELLIS  ', 220.0000,1,     0.000,     0.000,   8,   1,1.04104,  -6.6139,   1
 3361,'KILTOY  ', 110.0000,1,     0.000,     0.000,   9,   3,1.04052, -14.6678,   5
 3371,'KILTOY  ', 110.0000,1,     0.000,     0.000,   9,   3,1.04043, -14.6729,   5
 3381,'KINNEGAD', 110.0000,1,     0.000,     0.000,   2,   1,1.02820,  -9.8163,   1
 3401,'KILLOTER', 110.0000,1,     0.000,     0.000,   5,   1,1.04435, -12.2505,   1
 3421,'KILMORE ', 110.0000,1,     0.000,     0.000,   1,   1,1.05469,  -8.8687,   2
 3441,'KILMURRY', 110.0000,1,     0.000,     0.000,   8,   1,1.04114, -12.1085,   1
 3501,'LANESBOR', 110.0000,1,     0.000,     0.000,   9,   1,1.05000,  -8.7817,   1
 3521,'LOUTH   ', 110.0000,1,     0.000,     0.000,  10,   1,1.05401,  -9.6220,   1
 3522,'LOUTH   ', 220.0000,1,     0.000,     0.000,  10,   1,1.02109,  -7.2999,   1
 3541,'LIMERICK', 110.0000,1,     0.000,     0.000,   7,   1,1.03525,  -7.3302,   1
 3561,'LISDRUM ', 110.0000,1,     0.000,     0.000,  10,   1,1.01964, -11.5849,   1
 3581,'LETTERKE', 110.0000,1,     0.000,     0.000,   9,   1,1.04162, -14.5998,   1
 3601,'LIBERTY ', 110.0000,1,     0.000,     0.000,   3,   1,1.05770, -10.1406,   2
 3611,'LIBERTY ', 110.0000,1,     0.000,     0.000,   3,   1,1.05798, -10.1313,   2
 3621,'LISHEEN ', 110.0000,1,     0.000,     0.000,   5,   1,1.01421, -14.8440,   1
 3761,'MACETOWN', 110.0000,1,     0.000,     0.000,   2,   2,1.05478,  -7.4229,   1
 3781,'MCDERMOT', 110.0000,1,     0.000,     0.000,   1,   2,1.05259,  -8.9778,   2
 3801,'MIDLETON', 110.0000,1,     0.000,     0.000,   3,   1,1.05742,  -9.7642,   1
 3821,'MEATH HI', 110.0000,1,     0.000,     0.000,  10,   1,1.04027, -10.2693,   2
 3841,'MAYNOOTH', 110.0000,1,     0.000,     0.000,   2,   2,1.05302,  -7.8922,   1
 3842,'MAYNOOTH', 220.0000,1,     0.000,     0.000,   2,   2,1.06445,  -4.1953,   1
 3861,'MILLTOWN', 110.0000,1,     0.000,     0.000,   1,   2,1.06434,  -7.1889,   2
 3871,'MILLTOWN', 110.0000,1,     0.000,     0.000,   1,   2,1.05612,  -8.8099,   2
 3881,'MACROOM ', 110.0000,1,     0.000,     0.000,   3,   1,1.05687,  -9.3917,   1
 3901,'MONETEEN', 110.0000,1,     0.000,     0.000,   7,   1,1.04131,  -6.3101,   1
 3941,'MONEYPOI', 110.0000,1,     0.000,     0.000,   7,   1,1.00916,  -8.3964,   1
 3942,'MONEYPOI', 220.0000,1,     0.000,     0.000,   7,   1,1.07122,   4.2351,   1
 3944,'MNYPG1G3', 380.0000,1,     0.000,     6.000,   2,   1,1.07500,   8.0336,   1
 3954,'MNYPG2  ', 380.0000,1,     0.000,     6.000,   7,   1,1.07500,   8.9629,   1
 3961,'MARINA  ', 110.0000,1,     0.000,     0.000,   3,   1,1.05800, -10.1271,   1
 3981,'MUNGRET ', 110.0000,1,     0.000,     0.000,   7,   3,1.04111,  -6.3212,   5
 3991,'MUNGRET ', 110.0000,1,     0.000,     0.000,   7,   3,1.04112,  -6.3207,   5
 4001,'MULLINGA', 110.0000,1,     0.000,     0.000,   9,   1,1.01075, -10.2767,   1
 4021,'MALLOW  ', 110.0000,1,     0.000,     0.000,   3,   1,1.02759, -10.7735,   1
 4041,'MOY     ', 110.0000,1,     0.000,     0.000,   9,   1,1.03758, -14.4369,   1
 4061,'MULLAGHA', 110.0000,1,     0.000,     0.000,  10,   1,1.03863, -10.3744,   2
 4071,'MEENTYCA', 110.0000,2,     0.000,     0.000,   9,   1,1.04736, -13.7330,   1
 4081,'MONREAD ', 110.0000,1,     0.000,     0.000,   8,   1,1.03353,  -8.7439,   1
 4201,'NEWBRIDG', 110.0000,1,     0.000,     0.000,   8,   1,1.03541,  -8.4781,   1
 4221,'NAVAN   ', 110.0000,1,     0.000,     0.000,  10,   1,1.04888, -10.4471,   1
 4242,'NORTH WA', 220.0000,1,     0.000,     0.000,   2,   2,1.07509,  -3.6910,   1
 4261,'NENAGH  ', 110.0000,1,     0.000,     0.000,   7,   1,1.02369,  -8.7000,   1
 4281,'NANGOR  ', 110.0000,1,     0.000,     0.000,   1,   1,1.05513,  -8.7158,   1
 4341,'OLDCOURT', 110.0000,1,     0.000,     0.000,   3,   3,1.06343,  -9.7606,   5
 4351,'OLDCOURT', 110.0000,1,     0.000,     0.000,   3,   3,1.06343,  -9.7606,   5
 4361,'OUGHTRAG', 110.0000,1,     0.000,     0.000,   7,   1,1.03074,  -5.8403,   2
 4382,'OLDSTREE', 220.0000,1,     0.000,     0.000,   9,   1,1.07090,   4.7477,   1
 4384,'OLDSTREE', 380.0000,1,     0.000,     0.000,   9,   1,1.06048,   4.7539,   1
 4441,'POLLAPHU', 110.0000,1,     0.000,     0.000,   8,   1,1.07000,  -8.5700,   1
 4451,'POOLBEG ', 110.0000,1,     0.000,     0.000,   1,   1,1.06545,  -7.1135,   2
 4461,'POOLBEG ', 110.0000,1,     0.000,     0.000,   1,   1,1.06590,  -7.0034,   2
 4462,'POOLBEG ', 220.0000,1,     0.000,     0.000,   2,   2,1.07500,  -3.7570,   1
 4471,'POOLBEG ', 110.0000,1,     0.000,     0.000,   1,   1,1.06589,  -7.0068,   2
 4481,'PORTLAOI', 110.0000,1,     0.000,     0.000,   8,   1,1.04397,  -8.2561,   1
 4501,'PLATIN  ', 110.0000,1,     0.000,     0.000,  10,   3,1.03979,  -9.8473,   1
 4522,'PROSPECT', 220.0000,1,     0.000,     0.000,   7,   1,1.07322,   3.0141,   1
 4621,'RYEBROOK', 110.0000,1,     0.000,     0.000,   2,   3,1.04424,  -8.3683,   1
 4651,'RINGSEND', 110.0000,1,     0.000,     0.000,   1,   2,1.06544,  -7.1133,   2
 4681,'RATHKEAL', 110.0000,1,     0.000,     0.000,   7,   1,1.03678,  -5.0602,   1
 4701,'RICHMOND', 110.0000,1,     0.000,     0.000,   9,   1,1.03489,  -9.4729,   2
 4721,'RAFFEEN ', 110.0000,1,     0.000,     0.000,   3,   1,1.06682,  -9.7761,   1
 4722,'RAFFEEN ', 220.0000,1,     0.000,     0.000,   3,   1,1.06742,  -7.4857,   1
 4741,'RINAWADE', 110.0000,1,     0.000,     0.000,   2,   3,1.04691,  -8.3052,   1
 4761,'RINGASKI', 110.0000,1,     0.000,     0.000,   3,   1,1.06648,  -9.7944,   2
 4781,'RATRUSSA', 110.0000,1,     0.000,     0.000,  10,   1,1.03073, -10.4530,   1
 4901,'SHELTON ', 110.0000,1,     0.000,     0.000,   6,   3,1.06525,  -8.0451,   5
 4911,'SHELTON ', 110.0000,1,     0.000,     0.000,   6,   3,1.06525,  -8.0451,   5
 4941,'SHANNONB', 110.0000,1,     0.000,     0.000,   5,   1,1.05746,  -6.5286,   1
 4942,'SHANNONB', 220.0000,1,     0.000,     0.000,   5,   1,1.07500,  -5.2038,   1
 4961,'SHANKILL', 110.0000,1,     0.000,     0.000,  10,   1,1.01525, -11.6822,   1
 4981,'SLIGO   ', 110.0000,1,     0.000,     0.000,   9,   1,1.03808, -11.5960,   1
 5001,'SOMERSET', 110.0000,1,     0.000,     0.000,   9,   1,1.04683,  -6.7276,   2
 5022,'SHELLYBA', 220.0000,1,     0.000,     0.000,   2,   2,1.07529,  -3.0200,   1
 5031,'STEVENST', 110.0000,1,     0.000,     0.000,   2,   1,1.04105,  -9.6808,   2
 5041,'SRANANAG', 110.0000,1,     0.000,     0.000,   9,   1,1.04397, -11.0385,   1
 5042,'SRANANAG', 220.0000,1,     0.000,     0.000,   9,   1,1.02129,  -8.8925,   1
 5061,'STRATFOR', 110.0000,1,     0.000,     0.000,   8,   1,1.05271,  -9.6385,   2
 5071,'SHANEMOR', 110.0000,1,     0.000,     0.000,   9,   1,1.04211,  -6.6658,   1
 5141,'TARBERT ', 110.0000,1,     0.000,     0.000,   7,   1,1.06360,  -0.7968,   1
 5142,'TARBERT ', 220.0000,1,     0.000,     0.000,   7,   1,1.07500,   2.3332,   1
 5172,'TYNAGH  ', 220.0000,1,     0.000,     0.000,   9,   1,1.07500,   4.7172,   1
 5181,'TRABEG  ', 110.0000,1,     0.000,     0.000,   3,   1,1.05825, -10.1528,   1
 5202,'TURLOUGH', 220.0000,1,     0.000,     0.000,   2,   1,1.08085,  -2.6616,   1
 5221,'TULLABRA', 110.0000,1,     0.000,     0.000,   7,   1,1.00842,  -8.4259,   2
 5241,'TAWN_A  ', 110.0000,1,     0.000,     0.000,   9,   3,1.03762, -14.4379,   2
 5251,'TAWN_B  ', 110.0000,1,     0.000,     0.000,   9,   3,1.03762, -14.4379,   2
 5261,'TRIEN   ', 110.0000,1,     0.000,     0.000,   7,   1,1.06524,  -2.8966,   1
 5281,'TRALEE  ', 110.0000,1,     0.000,     0.000,   7,   1,1.05194,  -4.0311,   1
 5301,'THURLES ', 110.0000,1,     0.000,     0.000,   5,   1,1.01830, -14.5889,   1
 5321,'THORNSBE', 110.0000,1,     0.000,     0.000,   2,   1,1.00315, -10.9691,   2
 5341,'TONROE  ', 110.0000,1,     0.000,     0.000,   9,   1,1.04103, -10.7127,   2
 5361,'TRILLICK', 110.0000,1,     0.000,     0.000,   9,   1,1.03501, -14.5187,   2
 5381,'TIPPERAR', 110.0000,1,     0.000,     0.000,   5,   1,1.03381, -12.0059,   1
 5441,'WATERFOR', 110.0000,1,     0.000,     0.000,   5,   1,1.04634, -12.1170,   1
 5462,'WOODLAND', 220.0000,1,     0.000,     0.000,   2,   1,1.06833,  -3.5542,   1
 5464,'WOODLAND', 380.0000,1,     0.000,     0.000,   2,   1,1.02128,   0.7827,   1
 5481,'WHITEGAT', 110.0000,1,     0.000,     0.000,   3,   3,1.06320,  -9.0717,   1
 5501,'WEXFORD ', 110.0000,1,     0.000,     0.000,   6,   1,1.03934, -12.9827,   1
 5521,'WOLFE TO', 110.0000,1,     0.000,     0.000,   1,   1,1.05236,  -8.9970,   2
10204,'ARDNACRU',  38.0000,2,     0.000,     0.000,   7,   1,1.04848, -12.6834,   2
10205,'ARDNACRU',  38.0000,1,     0.000,     0.000,   7,   1,1.09123, -13.2480,   2
10271,'ARDNG1  ',  10.5000,2,     0.000,     0.000,   7,   1,1.00448,  -3.3482,   3
10272,'ARDNG2  ',  10.5000,2,     0.000,     0.000,   7,   1,1.00887,  -2.8141,   3
10273,'ARDNG3  ',  10.5000,2,     0.000,     0.000,   7,   1,1.00322,  -3.5597,   3
10274,'ARDNG4  ',  10.5000,2,     0.000,     0.000,   7,   1,1.00480,  -3.3076,   3
10421,'AGHADA  ',  10.5000,1,     0.000,     0.000,   3,   1,1.05732,  -7.0097,   1
10471,'AGH_G1  ',  20.0000,2,     0.000,     0.000,   3,   1,1.00982,  -0.0166,   3
10472,'AGH_G11 ',  10.5000,2,     0.000,     0.000,   3,   1,1.00000,  -6.3943,   3
10473,'AGH_G12 ',  10.5000,2,     0.000,     0.000,   3,   1,1.00000,  -6.3943,   3
10474,'AGH_G14 ',  10.5000,2,     0.000,     0.000,   3,   1,1.00000,  -6.3943,   3
10602,'ARIGNA  ',  20.0000,2,     0.000,     0.000,   9,   1,1.05782, -10.3611,   2
10619,'ARIGNA_T', 110.0000,1,     0.000,     0.000,   9,   1,1.04726, -10.5309,   1
10801,'AHANE   ',  11.0000,1,     0.000,     0.000,   7,   1,1.05413,  -8.9418,   2
11204,'ARKLOW  ',  38.0000,2,     0.000,     0.000,   6,   1,1.05975, -10.2153,   2
11221,'ARKL    ',  10.5000,1,     0.000,     0.000,   6,   1,1.06203,  -6.4825,   1
11222,'ARKL    ',  10.5000,1,     0.000,     0.000,   6,   1,1.07413,  -6.4796,   1
11404,'ATHLONE ',  38.0000,1,     0.000,     0.000,   9,   1,1.04815, -14.9761,   2
11461,'ATHLONE_', 110.0000,1,     0.000,     0.000,   8,   1,1.06235,  -9.2151,   1
11671,'SEALROCK',  11.5000,2,     0.000,     0.000,   7,   1,1.01981,   3.8608,   1
11672,'SEALROCK',  11.5000,2,     0.000,     0.000,   7,   1,1.01981,   3.8608,   4
12001,'ARTANE  ',  10.0000,1,     0.000,     0.000,   1,   1,1.04501, -10.6918,   2
12202,'ATHY    ',  20.0000,1,     0.000,     0.000,   8,   1,1.03027, -13.6437,   1
12804,'BALLYLIC',  38.0000,2,     0.000,     0.000,   3,   1,1.05488, -12.1326,   1
13001,'BALLYBEG',  10.0000,1,     0.000,     0.000,   6,   1,1.04365, -10.5570,   2
13204,'BLAKE   ',  38.0000,1,     0.000,     0.000,   8,   1,1.05048, -13.8848,   2
13219,'BLAKE T ', 110.0000,1,     0.000,     0.000,   8,   1,1.03543,  -8.6652,   1
13404,'BINBANE ',  38.0000,2,     0.000,     0.000,   9,   1,1.04790, -19.0810,   2
13601,'BALLYDIN',  10.0000,1,     0.000,     0.000,   5,   1,1.04616, -15.2050,   2
13604,'BALLYDIN',  38.0000,1,     0.000,     0.000,   5,   1,1.03377, -14.4945,   2
13802,'BARNAHEL',  20.0000,1,     0.000,     0.000,   3,   1,1.03683, -14.1259,   2
13804,'BARNAHEL',  38.0000,1,     0.000,     0.000,   3,   1,1.04817, -12.6507,   2
14002,'BELLACOR',  20.0000,2,     0.000,     0.000,   9,   1,1.04103, -15.4183,   2
14061,'BELL_CAP', 110.0000,1,     0.000,     0.000,   9,   1,1.04500, -13.9577,   1
14204,'BLACKROC',  38.0000,1,     0.000,     0.000,   2,   1,1.03982, -13.7130,   2
14401,'BANDON  ',  10.0000,1,     0.000,     0.000,   3,   1,1.03412, -14.1549,   1
14404,'BANDON  ',  38.0000,2,     0.000,     0.000,   3,   1,1.04803, -14.9665,   2
14461,'BAN_CAP ', 110.0000,1,     0.000,     0.000,   3,   1,1.05074, -11.2872,   1
14604,'BARRYMOR',  38.0000,2,     0.000,     0.000,   5,   1,1.05243, -14.4012,   2
14804,'BUTLERST',  38.0000,1,     0.000,     0.000,   5,   1,1.04095, -17.6971,   2
15001,'BRINNY  ',  10.0000,1,     0.000,     0.000,   3,   1,1.04351, -12.4379,   5
15401,'BANOGE  ',  10.0000,1,     0.000,     0.000,   6,   1,1.04695, -10.2874,   2
15801,'CABRA   ',  10.0000,1,     0.000,     0.000,   1,   1,1.03410, -11.8899,   2
16021,'CLASH   ',  10.5000,1,     0.000,     0.000,   3,   1,1.06147,  -5.6110,   1
16202,'COOLROE ',  20.0000,1,     0.000,     0.000,   3,   1,1.05017, -11.0050,   2
16302,'CORDERRY',  20.0000,2,     0.000,     0.000,   9,   1,1.04557,  -9.5147,   1
16421,'CASH    ',  10.5000,1,     0.000,     0.000,   9,   1,1.05565,  -2.0961,   1
16422,'CASH2   ',  10.5000,1,     0.000,     0.000,   9,   1,1.05565,  -2.0961,   1
16423,'CASH3   ',  10.5000,1,     0.000,     0.000,   9,   1,1.05565,  -2.0961,   1
16461,'CASH_CAP', 110.0000,1,     0.000,     0.000,   9,   1,1.05992,  -5.3618,   1
16604,'CASTLEBA',  38.0000,2,     0.000,     0.000,   9,   1,1.03566, -18.7946,   2
16661,'CBAR_CAP', 110.0000,1,     0.000,     0.000,   9,   1,1.05880, -13.1783,   1
16662,'CBAR_SVC', 110.0000,1,     0.000,     0.000,   9,   1,1.06229, -13.1783,   1
16873,'CDRDG3  ',  10.5000,2,     0.000,     0.000,   3,   1,1.00695,  -5.8318,   3
17004,'CATH_FAL',  38.0000,2,     0.000,     0.000,   9,   1,1.05442, -15.0340,   2
17061,'CATH_CAP', 110.0000,1,     0.000,     0.000,   9,   1,1.05016, -12.1206,   1
17073,'CATHG3  ',  10.5000,2,     0.000,     0.000,   9,   1,1.01451,  -7.9438,   3
17074,'CATHG4  ',  10.5000,2,     0.000,     0.000,   9,   1,1.01455,  -7.9172,   3
17204,'CAHIR   ',  38.0000,1,     0.000,     0.000,   5,   1,1.02459, -16.6211,   2
17261,'CAHR_CAP', 110.0000,1,     0.000,     0.000,   5,   1,1.04368, -14.0293,   1
17404,'CARRICKM',  38.0000,1,     0.000,     0.000,   2,   1,1.05249, -16.1210,   2
17421,'CMIN1   ',  10.5000,1,     0.000,     0.000,   2,   1,1.08502,  -4.4580,   2
17422,'CMIN2   ',  10.5000,1,     0.000,     0.000,   2,   1,1.08502,  -4.4580,   2
17431,'CKMN_PST', 220.0000,1,     0.000,     0.000,   2,   1,1.07445,  -4.1179,   1
17462,'CKM_SR  ', 220.0000,1,     0.000,     0.000,   2,   1,1.07136,  -3.4885,   1
17671,'CLIFG1  ',  10.5000,2,     0.000,     0.000,   9,   1,1.00768,  -7.9445,   3
17672,'CLIFG2  ',  10.5000,2,     0.000,     0.000,   9,   1,1.00703,  -8.0885,   3
17802,'CASTLEFA',  20.0000,1,     0.000,     0.000,   7,   1,1.03438,  -7.0337,   1
18004,'COOKSTOW',  38.0000,1,     0.000,     0.000,   1,   1,1.04218, -17.2613,   2
18019,'COOKST T', 110.0000,1,     0.000,     0.000,   1,   2,1.05151,  -8.8235,   2
18204,'CLOON   ',  38.0000,1,     0.000,     0.000,   9,   1,1.03752, -13.0653,   2
18402,'CRANE   ',  20.0000,1,     0.000,     0.000,   6,   1,1.04643, -13.0528,   2
18404,'CRANE   ',  38.0000,2,     0.000,     0.000,   6,   1,1.04496, -15.0456,   2
18604,'CARRICK ',  38.0000,1,     0.000,     0.000,   9,   1,1.04761, -14.3871,   2
18701,'COLLEGE ',  10.0000,1,     0.000,     0.000,   2,   1,1.05816,  -7.1498,   1
18804,'CHARLEVI',  38.0000,1,     0.000,     0.000,   3,   1,1.05359, -15.3191,   2
19004,'CARLOW  ',  38.0000,2,     0.000,     0.000,   8,   1,1.04332, -14.4607,   2
19204,'COW_CROS',  38.0000,1,     0.000,     0.000,   3,   1,1.04948, -14.2161,   2
19302,'CUNGHILL',  20.0000,1,     0.000,     0.000,   9,   1,1.01159, -10.6440,   4
19402,'CUNGHILL',  20.0000,2,     0.000,     0.000,   9,   1,1.00007,  -8.2876,   1
19471,'EDENDERR',  11.0000,2,     0.000,     0.000,   8,   1,1.01439,   1.6769,   4
19601,'CASTLEVI',  10.0000,1,     0.000,     0.000,   3,   1,1.04944, -11.7538,   2
20021,'CULLENAG',  10.5000,1,     0.000,     0.000,   5,   1,1.06344,  -9.3069,   1
20201,'CITY WES',  10.0000,1,     0.000,     0.000,   1,   1,1.04539,  -9.9209,   2
20421,'CORDUFF ',  10.5000,1,     0.000,     0.000,   2,   1,1.06716,  -4.6253,   1
20422,'CORDUFF ',  10.5000,1,     0.000,     0.000,   2,   1,1.06716,  -4.6253,   1
21004,'DUNDALK ',  38.0000,1,     0.000,     0.000,  10,   1,1.04581, -17.4724,   2
21204,'DRUMLINE',  38.0000,1,     0.000,     0.000,   7,   1,1.03979, -12.7210,   2
21404,'DUNGARVA',  38.0000,1,     0.000,     0.000,   5,   1,1.04552, -15.9653,   2
21604,'DOON    ',  38.0000,1,     0.000,     0.000,   5,   1,1.03492, -22.0054,   2
21661,'DOON_CAP', 110.0000,1,     0.000,     0.000,   5,   1,1.03706, -14.3728,   1
21804,'DRYBRIDG',  38.0000,1,     0.000,     0.000,  10,   1,1.05368, -17.1175,   2
22021,'DUNS    ',  17.5000,1,     0.000,     0.000,   2,   1,1.08206,   0.2454,   1
22204,'DUNMANWA',  38.0000,2,     0.000,     0.000,   3,   1,1.04592, -13.7775,   2
22261,'DUNM_CAP', 110.0000,1,     0.000,     0.000,   3,   1,1.04709, -11.0763,   1
22404,'DALLOW  ',  38.0000,1,     0.000,     0.000,   5,   1,1.04372, -10.4306,   2
22419,'DALLOW T', 110.0000,1,     0.000,     0.000,   5,   1,1.05043,  -7.0706,   1
22804,'DALTON  ',  38.0000,1,     0.000,     0.000,   9,   1,1.04511, -15.3592,   2
22861,'DALT_CAP', 110.0000,1,     0.000,     0.000,   9,   1,1.05763, -11.3086,   1
23001,'DUNFIRTH',  10.0000,1,     0.000,     0.000,   2,   1,1.04037, -11.8875,   2
23019,'DUNFIR_T', 110.0000,1,     0.000,     0.000,   2,   1,1.03605,  -9.2005,   1
23604,'ENNIS   ',  38.0000,1,     0.000,     0.000,   7,   1,1.03191, -15.1267,   2
24804,'FASSAROE',  38.0000,1,     0.000,     0.000,   2,   1,1.04967, -13.9327,   2
25221,'FLAG1   ',  10.5000,1,     0.000,     0.000,   9,   1,1.07107,  -7.9135,   1
25222,'FLAG2   ',  10.5000,1,     0.000,     0.000,   9,   1,1.07092,  -7.9344,   1
25404,'FRANCIS ',  38.0000,1,     0.000,     0.000,   1,   1,1.04144, -14.8520,   2
25604,'FINGLAS ',  38.0000,1,     0.000,     0.000,   2,   1,1.04747, -17.1971,   1
25621,'FING1   ',  10.5000,1,     0.000,     0.000,   2,   1,1.07910,  -4.9219,   1
25622,'FING2   ',  10.5000,1,     0.000,     0.000,   2,   1,1.07910,  -4.9219,   1
25623,'FING3   ',  10.5000,1,     0.000,     0.000,   2,   1,1.07910,  -4.9219,   1
25624,'FING4   ',  10.5000,4,     0.000,     0.000,   2,   1,1.00000,   0.0000,   1
26802,'GILRA   ',  20.0000,1,     0.000,     0.000,   9,   1,1.05740, -12.6441,   5
27004,'GLASMORE',  38.0000,1,     0.000,     0.000,   2,   1,1.03632, -15.2586,   2
27204,'GRIFFINR',  38.0000,2,     0.000,     0.000,   2,   1,1.04110, -15.0080,   2
27219,'GRFRAT T', 110.0000,1,     0.000,     0.000,   2,   1,1.05169,  -8.0190,   2
27404,'GREAT IS',  38.0000,1,     0.000,     0.000,   6,   1,1.03232, -16.5790,   2
27421,'GISL    ',  10.5000,1,     0.000,     0.000,   6,   1,1.07650,  -8.8189,   1
27422,'GISL    ',  10.5000,1,     0.000,     0.000,   6,   1,1.07660,  -8.8118,   1